taskid: 0 hostname: erc-hpc-comp010
Quilting with   1 groups of   0 I/O tasks.
 Ntasks in X            4 , ntasks in Y            4
  Domain # 1: dx =    50.000 m
--- ERROR: ghg_input available only for these radiation schemes: CAM, RRTM, RRTMG, RRTMG_fast
           And the LW and SW schemes must be reasonably paired together:
           OK = CAM LW with CAM SW
           OK = RRTM, RRTMG LW or SW, RRTMG_fast LW or SW may be mixed
WRF V4.6.1 MODEL
git commit d66e442fccc04111067e29274c9f9eaccc3cef28
 *************************************
 Parent domain
 ids,ide,jds,jde            1         103           1         103
 ims,ime,jms,jme           -4          33          -4          33
 ips,ipe,jps,jpe            1          26           1          26
 *************************************
DYNAMICS OPTION: Eulerian Mass Coordinate
   alloc_space_field: domain            1 ,              48664016  bytes allocated
  med_initialdata_input: calling input_input
   Input data is acceptable to use: wrfinput_d01
 CURRENT DATE          = 0001-01-01_00:00:00
 SIMULATION START DATE = 0001-01-01_00:00:00
Timing for processing wrfinput file (stream 0) for domain        1:    0.34908 elapsed seconds
Max map factor in domain 1 =  0.00. Scale the dt in the model accordingly.
FIRE:fire_driver_em_init: FIRE initialization start
FIRE:Using ideal ignition coordinates, m from the lower left domain corner
FIRE:Reading file namelist.fire
FIRE:Namelist fuel_moisture not found, using defaults
Timing for Writing wrfout_d01_0001-01-01_00:00:00 for domain        1:    0.47658 elapsed seconds
 Tile Strategy is not specified. Assuming 1D-Y
WRF TILE   1 IS      1 IE     26 JS      1 JE     26
WRF NUMBER OF TILES =   1
FIRE:Time       0.500 s Average wind           0.102E+01 m/s
FIRE:Time       0.500 s Maximum wind           0.102E+01 m/s
FIRE:Time       0.500 s Fire area              0.000E+00 m^2
FIRE:Time       0.500 s Heat output            0.000E+00 W
FIRE:Time       0.500 s Max heat flux          0.000E+00 W/m^2
FIRE:Time       0.500 s Latent heat output     0.000E+00 W
FIRE:Time       0.500 s Max latent heat flux   0.000E+00 W/m^2
d01 0001-01-01_00:00:00  ----------------------------------------
d01 0001-01-01_00:00:00  W-DAMPING  BEGINS AT W-COURANT NUMBER =    1.00000000
d01 0001-01-01_00:00:00  ----------------------------------------
Timing for main: time 0001-01-01_00:00:00 on domain   1:    0.59538 elapsed seconds
FIRE:Time       1.000 s Average wind           0.102E+01 m/s
FIRE:Time       1.000 s Maximum wind           0.103E+01 m/s
FIRE:Time       1.000 s Fire area              0.000E+00 m^2
FIRE:Time       1.000 s Heat output            0.000E+00 W
FIRE:Time       1.000 s Max heat flux          0.000E+00 W/m^2
FIRE:Time       1.000 s Latent heat output     0.000E+00 W
FIRE:Time       1.000 s Max latent heat flux   0.000E+00 W/m^2
Timing for main: time 0001-01-01_00:00:01 on domain   1:    0.09867 elapsed seconds
FIRE:Time       1.500 s Average wind           0.102E+01 m/s
FIRE:Time       1.500 s Maximum wind           0.105E+01 m/s
FIRE:Time       1.500 s Fire area              0.000E+00 m^2
FIRE:Time       1.500 s Heat output            0.000E+00 W
FIRE:Time       1.500 s Max heat flux          0.000E+00 W/m^2
FIRE:Time       1.500 s Latent heat output     0.000E+00 W
FIRE:Time       1.500 s Max latent heat flux   0.000E+00 W/m^2
Timing for main: time 0001-01-01_00:00:01 on domain   1:    0.10226 elapsed seconds
FIRE:Time       2.000 s Average wind           0.102E+01 m/s
FIRE:Time       2.000 s Maximum wind           0.107E+01 m/s
FIRE:Time       2.000 s Fire area              0.000E+00 m^2
FIRE:Time       2.000 s Heat output            0.000E+00 W
FIRE:Time       2.000 s Max heat flux          0.000E+00 W/m^2
FIRE:Time       2.000 s Latent heat output     0.000E+00 W
FIRE:Time       2.000 s Max latent heat flux   0.000E+00 W/m^2
Timing for main: time 0001-01-01_00:00:02 on domain   1:    0.09811 elapsed seconds
FIRE:Time       2.500 s Average wind           0.102E+01 m/s
FIRE:Time       2.500 s Maximum wind           0.107E+01 m/s
FIRE:Time       2.500 s Fire area              0.000E+00 m^2
FIRE:Time       2.500 s Heat output            0.000E+00 W
FIRE:Time       2.500 s Max heat flux          0.000E+00 W/m^2
FIRE:Time       2.500 s Latent heat output     0.000E+00 W
FIRE:Time       2.500 s Max latent heat flux   0.000E+00 W/m^2
Timing for main: time 0001-01-01_00:00:02 on domain   1:    0.09752 elapsed seconds
FIRE:Time       3.000 s Average wind           0.102E+01 m/s
FIRE:Time       3.000 s Maximum wind           0.106E+01 m/s
FIRE:Time       3.000 s Fire area              0.000E+00 m^2
FIRE:Time       3.000 s Heat output            0.000E+00 W
FIRE:Time       3.000 s Max heat flux          0.000E+00 W/m^2
FIRE:Time       3.000 s Latent heat output     0.000E+00 W
FIRE:Time       3.000 s Max latent heat flux   0.000E+00 W/m^2
Timing for main: time 0001-01-01_00:00:03 on domain   1:    0.12162 elapsed seconds
FIRE:Time       3.500 s Average wind           0.102E+01 m/s
FIRE:Time       3.500 s Maximum wind           0.106E+01 m/s
FIRE:Time       3.500 s Fire area              0.000E+00 m^2
FIRE:Time       3.500 s Heat output            0.000E+00 W
FIRE:Time       3.500 s Max heat flux          0.000E+00 W/m^2
FIRE:Time       3.500 s Latent heat output     0.000E+00 W
FIRE:Time       3.500 s Max latent heat flux   0.000E+00 W/m^2
Timing for main: time 0001-01-01_00:00:03 on domain   1:    0.10220 elapsed seconds
FIRE:Time       4.000 s Average wind           0.102E+01 m/s
FIRE:Time       4.000 s Maximum wind           0.106E+01 m/s
FIRE:Time       4.000 s Fire area              0.000E+00 m^2
FIRE:Time       4.000 s Heat output            0.000E+00 W
FIRE:Time       4.000 s Max heat flux          0.000E+00 W/m^2
FIRE:Time       4.000 s Latent heat output     0.000E+00 W
FIRE:Time       4.000 s Max latent heat flux   0.000E+00 W/m^2
Timing for main: time 0001-01-01_00:00:04 on domain   1:    0.10121 elapsed seconds
FIRE:Time       4.500 s Average wind           0.102E+01 m/s
FIRE:Time       4.500 s Maximum wind           0.106E+01 m/s
FIRE:Time       4.500 s Fire area              0.000E+00 m^2
FIRE:Time       4.500 s Heat output            0.000E+00 W
FIRE:Time       4.500 s Max heat flux          0.000E+00 W/m^2
FIRE:Time       4.500 s Latent heat output     0.000E+00 W
FIRE:Time       4.500 s Max latent heat flux   0.000E+00 W/m^2
Timing for main: time 0001-01-01_00:00:04 on domain   1:    0.09759 elapsed seconds
FIRE:Time       5.000 s Average wind           0.102E+01 m/s
FIRE:Time       5.000 s Maximum wind           0.106E+01 m/s
FIRE:Time       5.000 s Fire area              0.000E+00 m^2
FIRE:Time       5.000 s Heat output            0.000E+00 W
FIRE:Time       5.000 s Max heat flux          0.000E+00 W/m^2
FIRE:Time       5.000 s Latent heat output     0.000E+00 W
FIRE:Time       5.000 s Max latent heat flux   0.000E+00 W/m^2
Timing for main: time 0001-01-01_00:00:05 on domain   1:    0.09759 elapsed seconds
FIRE:Time       5.500 s Average wind           0.102E+01 m/s
FIRE:Time       5.500 s Maximum wind           0.106E+01 m/s
FIRE:Time       5.500 s Fire area              0.000E+00 m^2
FIRE:Time       5.500 s Heat output            0.000E+00 W
FIRE:Time       5.500 s Max heat flux          0.000E+00 W/m^2
FIRE:Time       5.500 s Latent heat output     0.000E+00 W
FIRE:Time       5.500 s Max latent heat flux   0.000E+00 W/m^2
Timing for main: time 0001-01-01_00:00:05 on domain   1:    0.09637 elapsed seconds
FIRE:Time       6.000 s Average wind           0.102E+01 m/s
FIRE:Time       6.000 s Maximum wind           0.106E+01 m/s
FIRE:Time       6.000 s Fire area              0.000E+00 m^2
FIRE:Time       6.000 s Heat output            0.000E+00 W
FIRE:Time       6.000 s Max heat flux          0.000E+00 W/m^2
FIRE:Time       6.000 s Latent heat output     0.000E+00 W
FIRE:Time       6.000 s Max latent heat flux   0.000E+00 W/m^2
Timing for main: time 0001-01-01_00:00:06 on domain   1:    0.09800 elapsed seconds
FIRE:Time       6.500 s Average wind           0.102E+01 m/s
FIRE:Time       6.500 s Maximum wind           0.106E+01 m/s
FIRE:Time       6.500 s Fire area              0.000E+00 m^2
FIRE:Time       6.500 s Heat output            0.000E+00 W
FIRE:Time       6.500 s Max heat flux          0.000E+00 W/m^2
FIRE:Time       6.500 s Latent heat output     0.000E+00 W
FIRE:Time       6.500 s Max latent heat flux   0.000E+00 W/m^2
Timing for main: time 0001-01-01_00:00:06 on domain   1:    0.09776 elapsed seconds
FIRE:Time       7.000 s Average wind           0.102E+01 m/s
FIRE:Time       7.000 s Maximum wind           0.106E+01 m/s
FIRE:Time       7.000 s Fire area              0.000E+00 m^2
FIRE:Time       7.000 s Heat output            0.000E+00 W
FIRE:Time       7.000 s Max heat flux          0.000E+00 W/m^2
FIRE:Time       7.000 s Latent heat output     0.000E+00 W
FIRE:Time       7.000 s Max latent heat flux   0.000E+00 W/m^2
Timing for main: time 0001-01-01_00:00:07 on domain   1:    0.09832 elapsed seconds
FIRE:Time       7.500 s Average wind           0.102E+01 m/s
FIRE:Time       7.500 s Maximum wind           0.106E+01 m/s
FIRE:Time       7.500 s Fire area              0.000E+00 m^2
FIRE:Time       7.500 s Heat output            0.000E+00 W
FIRE:Time       7.500 s Max heat flux          0.000E+00 W/m^2
FIRE:Time       7.500 s Latent heat output     0.000E+00 W
FIRE:Time       7.500 s Max latent heat flux   0.000E+00 W/m^2
Timing for main: time 0001-01-01_00:00:07 on domain   1:    0.09767 elapsed seconds
FIRE:Time       8.000 s Average wind           0.102E+01 m/s
FIRE:Time       8.000 s Maximum wind           0.106E+01 m/s
FIRE:Time       8.000 s Fire area              0.000E+00 m^2
FIRE:Time       8.000 s Heat output            0.000E+00 W
FIRE:Time       8.000 s Max heat flux          0.000E+00 W/m^2
FIRE:Time       8.000 s Latent heat output     0.000E+00 W
FIRE:Time       8.000 s Max latent heat flux   0.000E+00 W/m^2
Timing for main: time 0001-01-01_00:00:08 on domain   1:    0.10063 elapsed seconds
FIRE:Time       8.500 s Average wind           0.102E+01 m/s
FIRE:Time       8.500 s Maximum wind           0.106E+01 m/s
FIRE:Time       8.500 s Fire area              0.000E+00 m^2
FIRE:Time       8.500 s Heat output            0.000E+00 W
FIRE:Time       8.500 s Max heat flux          0.000E+00 W/m^2
FIRE:Time       8.500 s Latent heat output     0.000E+00 W
FIRE:Time       8.500 s Max latent heat flux   0.000E+00 W/m^2
Timing for main: time 0001-01-01_00:00:08 on domain   1:    0.11624 elapsed seconds
FIRE:Time       9.000 s Average wind           0.102E+01 m/s
FIRE:Time       9.000 s Maximum wind           0.106E+01 m/s
FIRE:Time       9.000 s Fire area              0.000E+00 m^2
FIRE:Time       9.000 s Heat output            0.000E+00 W
FIRE:Time       9.000 s Max heat flux          0.000E+00 W/m^2
FIRE:Time       9.000 s Latent heat output     0.000E+00 W
FIRE:Time       9.000 s Max latent heat flux   0.000E+00 W/m^2
Timing for main: time 0001-01-01_00:00:09 on domain   1:    0.09831 elapsed seconds
FIRE:Time       9.500 s Average wind           0.102E+01 m/s
FIRE:Time       9.500 s Maximum wind           0.106E+01 m/s
FIRE:Time       9.500 s Fire area              0.000E+00 m^2
FIRE:Time       9.500 s Heat output            0.000E+00 W
FIRE:Time       9.500 s Max heat flux          0.000E+00 W/m^2
FIRE:Time       9.500 s Latent heat output     0.000E+00 W
FIRE:Time       9.500 s Max latent heat flux   0.000E+00 W/m^2
Timing for main: time 0001-01-01_00:00:09 on domain   1:    0.09951 elapsed seconds
FIRE:Time      10.000 s Average wind           0.102E+01 m/s
FIRE:Time      10.000 s Maximum wind           0.106E+01 m/s
FIRE:Time      10.000 s Fire area              0.000E+00 m^2
FIRE:Time      10.000 s Heat output            0.000E+00 W
FIRE:Time      10.000 s Max heat flux          0.000E+00 W/m^2
FIRE:Time      10.000 s Latent heat output     0.000E+00 W
FIRE:Time      10.000 s Max latent heat flux   0.000E+00 W/m^2
Timing for main: time 0001-01-01_00:00:10 on domain   1:    0.09890 elapsed seconds
FIRE:Time      10.500 s Average wind           0.102E+01 m/s
FIRE:Time      10.500 s Maximum wind           0.106E+01 m/s
FIRE:Time      10.500 s Fire area              0.000E+00 m^2
FIRE:Time      10.500 s Heat output            0.000E+00 W
FIRE:Time      10.500 s Max heat flux          0.000E+00 W/m^2
FIRE:Time      10.500 s Latent heat output     0.000E+00 W
FIRE:Time      10.500 s Max latent heat flux   0.000E+00 W/m^2
Timing for main: time 0001-01-01_00:00:10 on domain   1:    0.09629 elapsed seconds
FIRE:Time      11.000 s Average wind           0.102E+01 m/s
FIRE:Time      11.000 s Maximum wind           0.106E+01 m/s
FIRE:Time      11.000 s Fire area              0.000E+00 m^2
FIRE:Time      11.000 s Heat output            0.000E+00 W
FIRE:Time      11.000 s Max heat flux          0.000E+00 W/m^2
FIRE:Time      11.000 s Latent heat output     0.000E+00 W
FIRE:Time      11.000 s Max latent heat flux   0.000E+00 W/m^2
Timing for main: time 0001-01-01_00:00:11 on domain   1:    0.10055 elapsed seconds
FIRE:Time      11.500 s Average wind           0.102E+01 m/s
FIRE:Time      11.500 s Maximum wind           0.106E+01 m/s
FIRE:Time      11.500 s Fire area              0.000E+00 m^2
FIRE:Time      11.500 s Heat output            0.000E+00 W
FIRE:Time      11.500 s Max heat flux          0.000E+00 W/m^2
FIRE:Time      11.500 s Latent heat output     0.000E+00 W
FIRE:Time      11.500 s Max latent heat flux   0.000E+00 W/m^2
Timing for main: time 0001-01-01_00:00:11 on domain   1:    0.09776 elapsed seconds
FIRE:Time      12.000 s Average wind           0.102E+01 m/s
FIRE:Time      12.000 s Maximum wind           0.106E+01 m/s
FIRE:Time      12.000 s Fire area              0.000E+00 m^2
FIRE:Time      12.000 s Heat output            0.000E+00 W
FIRE:Time      12.000 s Max heat flux          0.000E+00 W/m^2
FIRE:Time      12.000 s Latent heat output     0.000E+00 W
FIRE:Time      12.000 s Max latent heat flux   0.000E+00 W/m^2
Timing for main: time 0001-01-01_00:00:12 on domain   1:    0.09680 elapsed seconds
FIRE:Time      12.500 s Average wind           0.102E+01 m/s
FIRE:Time      12.500 s Maximum wind           0.106E+01 m/s
FIRE:Time      12.500 s Fire area              0.000E+00 m^2
FIRE:Time      12.500 s Heat output            0.000E+00 W
FIRE:Time      12.500 s Max heat flux          0.000E+00 W/m^2
FIRE:Time      12.500 s Latent heat output     0.000E+00 W
FIRE:Time      12.500 s Max latent heat flux   0.000E+00 W/m^2
Timing for main: time 0001-01-01_00:00:12 on domain   1:    0.09697 elapsed seconds
FIRE:Time      13.000 s Average wind           0.102E+01 m/s
FIRE:Time      13.000 s Maximum wind           0.106E+01 m/s
FIRE:Time      13.000 s Fire area              0.000E+00 m^2
FIRE:Time      13.000 s Heat output            0.000E+00 W
FIRE:Time      13.000 s Max heat flux          0.000E+00 W/m^2
FIRE:Time      13.000 s Latent heat output     0.000E+00 W
FIRE:Time      13.000 s Max latent heat flux   0.000E+00 W/m^2
Timing for main: time 0001-01-01_00:00:13 on domain   1:    0.09816 elapsed seconds
FIRE:Time      13.500 s Average wind           0.102E+01 m/s
FIRE:Time      13.500 s Maximum wind           0.107E+01 m/s
FIRE:Time      13.500 s Fire area              0.000E+00 m^2
FIRE:Time      13.500 s Heat output            0.000E+00 W
FIRE:Time      13.500 s Max heat flux          0.000E+00 W/m^2
FIRE:Time      13.500 s Latent heat output     0.000E+00 W
FIRE:Time      13.500 s Max latent heat flux   0.000E+00 W/m^2
Timing for main: time 0001-01-01_00:00:13 on domain   1:    0.09899 elapsed seconds
FIRE:Time      14.000 s Average wind           0.102E+01 m/s
FIRE:Time      14.000 s Maximum wind           0.107E+01 m/s
FIRE:Time      14.000 s Fire area              0.000E+00 m^2
FIRE:Time      14.000 s Heat output            0.000E+00 W
FIRE:Time      14.000 s Max heat flux          0.000E+00 W/m^2
FIRE:Time      14.000 s Latent heat output     0.000E+00 W
FIRE:Time      14.000 s Max latent heat flux   0.000E+00 W/m^2
Timing for main: time 0001-01-01_00:00:14 on domain   1:    0.27019 elapsed seconds
FIRE:Time      14.500 s Average wind           0.102E+01 m/s
FIRE:Time      14.500 s Maximum wind           0.107E+01 m/s
FIRE:Time      14.500 s Fire area              0.000E+00 m^2
FIRE:Time      14.500 s Heat output            0.000E+00 W
FIRE:Time      14.500 s Max heat flux          0.000E+00 W/m^2
FIRE:Time      14.500 s Latent heat output     0.000E+00 W
FIRE:Time      14.500 s Max latent heat flux   0.000E+00 W/m^2
Timing for main: time 0001-01-01_00:00:14 on domain   1:    0.09723 elapsed seconds
FIRE:Time      15.000 s Average wind           0.102E+01 m/s
FIRE:Time      15.000 s Maximum wind           0.107E+01 m/s
FIRE:Time      15.000 s Fire area              0.000E+00 m^2
FIRE:Time      15.000 s Heat output            0.000E+00 W
FIRE:Time      15.000 s Max heat flux          0.000E+00 W/m^2
FIRE:Time      15.000 s Latent heat output     0.000E+00 W
FIRE:Time      15.000 s Max latent heat flux   0.000E+00 W/m^2
Timing for main: time 0001-01-01_00:00:15 on domain   1:    0.10073 elapsed seconds
FIRE:Time      15.500 s Average wind           0.102E+01 m/s
FIRE:Time      15.500 s Maximum wind           0.107E+01 m/s
FIRE:Time      15.500 s Fire area              0.000E+00 m^2
FIRE:Time      15.500 s Heat output            0.000E+00 W
FIRE:Time      15.500 s Max heat flux          0.000E+00 W/m^2
FIRE:Time      15.500 s Latent heat output     0.000E+00 W
FIRE:Time      15.500 s Max latent heat flux   0.000E+00 W/m^2
Timing for main: time 0001-01-01_00:00:15 on domain   1:    0.09715 elapsed seconds
FIRE:Time      16.000 s Average wind           0.102E+01 m/s
FIRE:Time      16.000 s Maximum wind           0.107E+01 m/s
FIRE:Time      16.000 s Fire area              0.000E+00 m^2
FIRE:Time      16.000 s Heat output            0.000E+00 W
FIRE:Time      16.000 s Max heat flux          0.000E+00 W/m^2
FIRE:Time      16.000 s Latent heat output     0.000E+00 W
FIRE:Time      16.000 s Max latent heat flux   0.000E+00 W/m^2
Timing for main: time 0001-01-01_00:00:16 on domain   1:    0.09777 elapsed seconds
FIRE:Time      16.500 s Average wind           0.102E+01 m/s
FIRE:Time      16.500 s Maximum wind           0.106E+01 m/s
FIRE:Time      16.500 s Fire area              0.000E+00 m^2
FIRE:Time      16.500 s Heat output            0.000E+00 W
FIRE:Time      16.500 s Max heat flux          0.000E+00 W/m^2
FIRE:Time      16.500 s Latent heat output     0.000E+00 W
FIRE:Time      16.500 s Max latent heat flux   0.000E+00 W/m^2
Timing for main: time 0001-01-01_00:00:16 on domain   1:    0.09609 elapsed seconds
FIRE:Time      17.000 s Average wind           0.102E+01 m/s
FIRE:Time      17.000 s Maximum wind           0.106E+01 m/s
FIRE:Time      17.000 s Fire area              0.000E+00 m^2
FIRE:Time      17.000 s Heat output            0.000E+00 W
FIRE:Time      17.000 s Max heat flux          0.000E+00 W/m^2
FIRE:Time      17.000 s Latent heat output     0.000E+00 W
FIRE:Time      17.000 s Max latent heat flux   0.000E+00 W/m^2
Timing for main: time 0001-01-01_00:00:17 on domain   1:    0.09834 elapsed seconds
FIRE:Time      17.500 s Average wind           0.102E+01 m/s
FIRE:Time      17.500 s Maximum wind           0.106E+01 m/s
FIRE:Time      17.500 s Fire area              0.000E+00 m^2
FIRE:Time      17.500 s Heat output            0.000E+00 W
FIRE:Time      17.500 s Max heat flux          0.000E+00 W/m^2
FIRE:Time      17.500 s Latent heat output     0.000E+00 W
FIRE:Time      17.500 s Max latent heat flux   0.000E+00 W/m^2
Timing for main: time 0001-01-01_00:00:17 on domain   1:    0.09810 elapsed seconds
FIRE:Time      18.000 s Average wind           0.102E+01 m/s
FIRE:Time      18.000 s Maximum wind           0.106E+01 m/s
FIRE:Time      18.000 s Fire area              0.000E+00 m^2
FIRE:Time      18.000 s Heat output            0.000E+00 W
FIRE:Time      18.000 s Max heat flux          0.000E+00 W/m^2
FIRE:Time      18.000 s Latent heat output     0.000E+00 W
FIRE:Time      18.000 s Max latent heat flux   0.000E+00 W/m^2
Timing for main: time 0001-01-01_00:00:18 on domain   1:    0.09652 elapsed seconds
FIRE:Time      18.500 s Average wind           0.102E+01 m/s
FIRE:Time      18.500 s Maximum wind           0.107E+01 m/s
FIRE:Time      18.500 s Fire area              0.000E+00 m^2
FIRE:Time      18.500 s Heat output            0.000E+00 W
FIRE:Time      18.500 s Max heat flux          0.000E+00 W/m^2
FIRE:Time      18.500 s Latent heat output     0.000E+00 W
FIRE:Time      18.500 s Max latent heat flux   0.000E+00 W/m^2
Timing for main: time 0001-01-01_00:00:18 on domain   1:    0.09587 elapsed seconds
FIRE:Time      19.000 s Average wind           0.102E+01 m/s
FIRE:Time      19.000 s Maximum wind           0.107E+01 m/s
FIRE:Time      19.000 s Fire area              0.000E+00 m^2
FIRE:Time      19.000 s Heat output            0.000E+00 W
FIRE:Time      19.000 s Max heat flux          0.000E+00 W/m^2
FIRE:Time      19.000 s Latent heat output     0.000E+00 W
FIRE:Time      19.000 s Max latent heat flux   0.000E+00 W/m^2
Timing for main: time 0001-01-01_00:00:19 on domain   1:    0.09710 elapsed seconds
FIRE:Time      19.500 s Average wind           0.102E+01 m/s
FIRE:Time      19.500 s Maximum wind           0.107E+01 m/s
FIRE:Time      19.500 s Fire area              0.000E+00 m^2
FIRE:Time      19.500 s Heat output            0.000E+00 W
FIRE:Time      19.500 s Max heat flux          0.000E+00 W/m^2
FIRE:Time      19.500 s Latent heat output     0.000E+00 W
FIRE:Time      19.500 s Max latent heat flux   0.000E+00 W/m^2
Timing for main: time 0001-01-01_00:00:19 on domain   1:    0.09638 elapsed seconds
FIRE:Time      20.000 s Average wind           0.102E+01 m/s
FIRE:Time      20.000 s Maximum wind           0.107E+01 m/s
FIRE:Time      20.000 s Fire area              0.000E+00 m^2
FIRE:Time      20.000 s Heat output            0.000E+00 W
FIRE:Time      20.000 s Max heat flux          0.000E+00 W/m^2
FIRE:Time      20.000 s Latent heat output     0.000E+00 W
FIRE:Time      20.000 s Max latent heat flux   0.000E+00 W/m^2
Timing for main: time 0001-01-01_00:00:20 on domain   1:    0.09830 elapsed seconds
FIRE:Time      20.500 s Average wind           0.102E+01 m/s
FIRE:Time      20.500 s Maximum wind           0.107E+01 m/s
FIRE:Time      20.500 s Fire area              0.000E+00 m^2
FIRE:Time      20.500 s Heat output            0.000E+00 W
FIRE:Time      20.500 s Max heat flux          0.000E+00 W/m^2
FIRE:Time      20.500 s Latent heat output     0.000E+00 W
FIRE:Time      20.500 s Max latent heat flux   0.000E+00 W/m^2
Timing for main: time 0001-01-01_00:00:20 on domain   1:    0.09635 elapsed seconds
FIRE:Time      21.000 s Average wind           0.102E+01 m/s
FIRE:Time      21.000 s Maximum wind           0.107E+01 m/s
FIRE:Time      21.000 s Fire area              0.000E+00 m^2
FIRE:Time      21.000 s Heat output            0.000E+00 W
FIRE:Time      21.000 s Max heat flux          0.000E+00 W/m^2
FIRE:Time      21.000 s Latent heat output     0.000E+00 W
FIRE:Time      21.000 s Max latent heat flux   0.000E+00 W/m^2
Timing for main: time 0001-01-01_00:00:21 on domain   1:    0.11025 elapsed seconds
FIRE:Time      21.500 s Average wind           0.102E+01 m/s
FIRE:Time      21.500 s Maximum wind           0.107E+01 m/s
FIRE:Time      21.500 s Fire area              0.000E+00 m^2
FIRE:Time      21.500 s Heat output            0.000E+00 W
FIRE:Time      21.500 s Max heat flux          0.000E+00 W/m^2
FIRE:Time      21.500 s Latent heat output     0.000E+00 W
FIRE:Time      21.500 s Max latent heat flux   0.000E+00 W/m^2
Timing for main: time 0001-01-01_00:00:21 on domain   1:    0.10091 elapsed seconds
FIRE:Time      22.000 s Average wind           0.102E+01 m/s
FIRE:Time      22.000 s Maximum wind           0.107E+01 m/s
FIRE:Time      22.000 s Fire area              0.000E+00 m^2
FIRE:Time      22.000 s Heat output            0.000E+00 W
FIRE:Time      22.000 s Max heat flux          0.000E+00 W/m^2
FIRE:Time      22.000 s Latent heat output     0.000E+00 W
FIRE:Time      22.000 s Max latent heat flux   0.000E+00 W/m^2
Timing for main: time 0001-01-01_00:00:22 on domain   1:    0.09689 elapsed seconds
FIRE:Time      22.500 s Average wind           0.102E+01 m/s
FIRE:Time      22.500 s Maximum wind           0.107E+01 m/s
FIRE:Time      22.500 s Fire area              0.000E+00 m^2
FIRE:Time      22.500 s Heat output            0.000E+00 W
FIRE:Time      22.500 s Max heat flux          0.000E+00 W/m^2
FIRE:Time      22.500 s Latent heat output     0.000E+00 W
FIRE:Time      22.500 s Max latent heat flux   0.000E+00 W/m^2
Timing for main: time 0001-01-01_00:00:22 on domain   1:    0.09640 elapsed seconds
FIRE:Time      23.000 s Average wind           0.102E+01 m/s
FIRE:Time      23.000 s Maximum wind           0.107E+01 m/s
FIRE:Time      23.000 s Fire area              0.000E+00 m^2
FIRE:Time      23.000 s Heat output            0.000E+00 W
FIRE:Time      23.000 s Max heat flux          0.000E+00 W/m^2
FIRE:Time      23.000 s Latent heat output     0.000E+00 W
FIRE:Time      23.000 s Max latent heat flux   0.000E+00 W/m^2
Timing for main: time 0001-01-01_00:00:23 on domain   1:    0.09645 elapsed seconds
FIRE:Time      23.500 s Average wind           0.102E+01 m/s
FIRE:Time      23.500 s Maximum wind           0.107E+01 m/s
FIRE:Time      23.500 s Fire area              0.000E+00 m^2
FIRE:Time      23.500 s Heat output            0.000E+00 W
FIRE:Time      23.500 s Max heat flux          0.000E+00 W/m^2
FIRE:Time      23.500 s Latent heat output     0.000E+00 W
FIRE:Time      23.500 s Max latent heat flux   0.000E+00 W/m^2
Timing for main: time 0001-01-01_00:00:23 on domain   1:    0.09707 elapsed seconds
FIRE:Time      24.000 s Average wind           0.102E+01 m/s
FIRE:Time      24.000 s Maximum wind           0.107E+01 m/s
FIRE:Time      24.000 s Fire area              0.000E+00 m^2
FIRE:Time      24.000 s Heat output            0.000E+00 W
FIRE:Time      24.000 s Max heat flux          0.000E+00 W/m^2
FIRE:Time      24.000 s Latent heat output     0.000E+00 W
FIRE:Time      24.000 s Max latent heat flux   0.000E+00 W/m^2
Timing for main: time 0001-01-01_00:00:24 on domain   1:    0.09612 elapsed seconds
FIRE:Time      24.500 s Average wind           0.102E+01 m/s
FIRE:Time      24.500 s Maximum wind           0.107E+01 m/s
FIRE:Time      24.500 s Fire area              0.000E+00 m^2
FIRE:Time      24.500 s Heat output            0.000E+00 W
FIRE:Time      24.500 s Max heat flux          0.000E+00 W/m^2
FIRE:Time      24.500 s Latent heat output     0.000E+00 W
FIRE:Time      24.500 s Max latent heat flux   0.000E+00 W/m^2
Timing for main: time 0001-01-01_00:00:24 on domain   1:    0.09560 elapsed seconds
FIRE:Time      25.000 s Average wind           0.102E+01 m/s
FIRE:Time      25.000 s Maximum wind           0.107E+01 m/s
FIRE:Time      25.000 s Fire area              0.000E+00 m^2
FIRE:Time      25.000 s Heat output            0.000E+00 W
FIRE:Time      25.000 s Max heat flux          0.000E+00 W/m^2
FIRE:Time      25.000 s Latent heat output     0.000E+00 W
FIRE:Time      25.000 s Max latent heat flux   0.000E+00 W/m^2
Timing for main: time 0001-01-01_00:00:25 on domain   1:    0.09744 elapsed seconds
FIRE:Time      25.500 s Average wind           0.102E+01 m/s
FIRE:Time      25.500 s Maximum wind           0.108E+01 m/s
FIRE:Time      25.500 s Fire area              0.000E+00 m^2
FIRE:Time      25.500 s Heat output            0.000E+00 W
FIRE:Time      25.500 s Max heat flux          0.000E+00 W/m^2
FIRE:Time      25.500 s Latent heat output     0.000E+00 W
FIRE:Time      25.500 s Max latent heat flux   0.000E+00 W/m^2
Timing for main: time 0001-01-01_00:00:25 on domain   1:    0.09650 elapsed seconds
FIRE:Time      26.000 s Average wind           0.102E+01 m/s
FIRE:Time      26.000 s Maximum wind           0.108E+01 m/s
FIRE:Time      26.000 s Fire area              0.000E+00 m^2
FIRE:Time      26.000 s Heat output            0.000E+00 W
FIRE:Time      26.000 s Max heat flux          0.000E+00 W/m^2
FIRE:Time      26.000 s Latent heat output     0.000E+00 W
FIRE:Time      26.000 s Max latent heat flux   0.000E+00 W/m^2
Timing for main: time 0001-01-01_00:00:26 on domain   1:    0.09626 elapsed seconds
FIRE:Time      26.500 s Average wind           0.102E+01 m/s
FIRE:Time      26.500 s Maximum wind           0.108E+01 m/s
FIRE:Time      26.500 s Fire area              0.000E+00 m^2
FIRE:Time      26.500 s Heat output            0.000E+00 W
FIRE:Time      26.500 s Max heat flux          0.000E+00 W/m^2
FIRE:Time      26.500 s Latent heat output     0.000E+00 W
FIRE:Time      26.500 s Max latent heat flux   0.000E+00 W/m^2
Timing for main: time 0001-01-01_00:00:26 on domain   1:    0.09873 elapsed seconds
FIRE:Time      27.000 s Average wind           0.102E+01 m/s
FIRE:Time      27.000 s Maximum wind           0.108E+01 m/s
FIRE:Time      27.000 s Fire area              0.000E+00 m^2
FIRE:Time      27.000 s Heat output            0.000E+00 W
FIRE:Time      27.000 s Max heat flux          0.000E+00 W/m^2
FIRE:Time      27.000 s Latent heat output     0.000E+00 W
FIRE:Time      27.000 s Max latent heat flux   0.000E+00 W/m^2
Timing for main: time 0001-01-01_00:00:27 on domain   1:    0.09797 elapsed seconds
FIRE:Time      27.500 s Average wind           0.102E+01 m/s
FIRE:Time      27.500 s Maximum wind           0.108E+01 m/s
FIRE:Time      27.500 s Fire area              0.000E+00 m^2
FIRE:Time      27.500 s Heat output            0.000E+00 W
FIRE:Time      27.500 s Max heat flux          0.000E+00 W/m^2
FIRE:Time      27.500 s Latent heat output     0.000E+00 W
FIRE:Time      27.500 s Max latent heat flux   0.000E+00 W/m^2
Timing for main: time 0001-01-01_00:00:27 on domain   1:    0.11258 elapsed seconds
FIRE:Time      28.000 s Average wind           0.102E+01 m/s
FIRE:Time      28.000 s Maximum wind           0.108E+01 m/s
FIRE:Time      28.000 s Fire area              0.000E+00 m^2
FIRE:Time      28.000 s Heat output            0.000E+00 W
FIRE:Time      28.000 s Max heat flux          0.000E+00 W/m^2
FIRE:Time      28.000 s Latent heat output     0.000E+00 W
FIRE:Time      28.000 s Max latent heat flux   0.000E+00 W/m^2
Timing for main: time 0001-01-01_00:00:28 on domain   1:    0.10013 elapsed seconds
FIRE:Time      28.500 s Average wind           0.102E+01 m/s
FIRE:Time      28.500 s Maximum wind           0.108E+01 m/s
FIRE:Time      28.500 s Fire area              0.000E+00 m^2
FIRE:Time      28.500 s Heat output            0.000E+00 W
FIRE:Time      28.500 s Max heat flux          0.000E+00 W/m^2
FIRE:Time      28.500 s Latent heat output     0.000E+00 W
FIRE:Time      28.500 s Max latent heat flux   0.000E+00 W/m^2
Timing for main: time 0001-01-01_00:00:28 on domain   1:    0.09654 elapsed seconds
FIRE:Time      29.000 s Average wind           0.102E+01 m/s
FIRE:Time      29.000 s Maximum wind           0.108E+01 m/s
FIRE:Time      29.000 s Fire area              0.000E+00 m^2
FIRE:Time      29.000 s Heat output            0.000E+00 W
FIRE:Time      29.000 s Max heat flux          0.000E+00 W/m^2
FIRE:Time      29.000 s Latent heat output     0.000E+00 W
FIRE:Time      29.000 s Max latent heat flux   0.000E+00 W/m^2
Timing for main: time 0001-01-01_00:00:29 on domain   1:    0.09601 elapsed seconds
FIRE:Time      29.500 s Average wind           0.102E+01 m/s
FIRE:Time      29.500 s Maximum wind           0.108E+01 m/s
FIRE:Time      29.500 s Fire area              0.000E+00 m^2
FIRE:Time      29.500 s Heat output            0.000E+00 W
FIRE:Time      29.500 s Max heat flux          0.000E+00 W/m^2
FIRE:Time      29.500 s Latent heat output     0.000E+00 W
FIRE:Time      29.500 s Max latent heat flux   0.000E+00 W/m^2
Timing for main: time 0001-01-01_00:00:29 on domain   1:    0.09596 elapsed seconds
FIRE:Time      30.000 s Average wind           0.102E+01 m/s
FIRE:Time      30.000 s Maximum wind           0.108E+01 m/s
FIRE:Time      30.000 s Fire area              0.000E+00 m^2
FIRE:Time      30.000 s Heat output            0.000E+00 W
FIRE:Time      30.000 s Max heat flux          0.000E+00 W/m^2
FIRE:Time      30.000 s Latent heat output     0.000E+00 W
FIRE:Time      30.000 s Max latent heat flux   0.000E+00 W/m^2
Timing for main: time 0001-01-01_00:00:30 on domain   1:    0.10929 elapsed seconds
FIRE:Time      30.500 s Average wind           0.102E+01 m/s
FIRE:Time      30.500 s Maximum wind           0.108E+01 m/s
FIRE:Time      30.500 s Fire area              0.000E+00 m^2
FIRE:Time      30.500 s Heat output            0.000E+00 W
FIRE:Time      30.500 s Max heat flux          0.000E+00 W/m^2
FIRE:Time      30.500 s Latent heat output     0.000E+00 W
FIRE:Time      30.500 s Max latent heat flux   0.000E+00 W/m^2
Timing for main: time 0001-01-01_00:00:30 on domain   1:    0.15581 elapsed seconds
FIRE:Time      31.000 s Average wind           0.102E+01 m/s
FIRE:Time      31.000 s Maximum wind           0.108E+01 m/s
FIRE:Time      31.000 s Fire area              0.000E+00 m^2
FIRE:Time      31.000 s Heat output            0.000E+00 W
FIRE:Time      31.000 s Max heat flux          0.000E+00 W/m^2
FIRE:Time      31.000 s Latent heat output     0.000E+00 W
FIRE:Time      31.000 s Max latent heat flux   0.000E+00 W/m^2
Timing for main: time 0001-01-01_00:00:31 on domain   1:    0.09973 elapsed seconds
FIRE:Time      31.500 s Average wind           0.102E+01 m/s
FIRE:Time      31.500 s Maximum wind           0.109E+01 m/s
FIRE:Time      31.500 s Fire area              0.000E+00 m^2
FIRE:Time      31.500 s Heat output            0.000E+00 W
FIRE:Time      31.500 s Max heat flux          0.000E+00 W/m^2
FIRE:Time      31.500 s Latent heat output     0.000E+00 W
FIRE:Time      31.500 s Max latent heat flux   0.000E+00 W/m^2
Timing for main: time 0001-01-01_00:00:31 on domain   1:    0.10669 elapsed seconds
FIRE:Time      32.000 s Average wind           0.102E+01 m/s
FIRE:Time      32.000 s Maximum wind           0.109E+01 m/s
FIRE:Time      32.000 s Fire area              0.000E+00 m^2
FIRE:Time      32.000 s Heat output            0.000E+00 W
FIRE:Time      32.000 s Max heat flux          0.000E+00 W/m^2
FIRE:Time      32.000 s Latent heat output     0.000E+00 W
FIRE:Time      32.000 s Max latent heat flux   0.000E+00 W/m^2
Timing for main: time 0001-01-01_00:00:32 on domain   1:    0.09674 elapsed seconds
FIRE:Time      32.500 s Average wind           0.102E+01 m/s
FIRE:Time      32.500 s Maximum wind           0.109E+01 m/s
FIRE:Time      32.500 s Fire area              0.000E+00 m^2
FIRE:Time      32.500 s Heat output            0.000E+00 W
FIRE:Time      32.500 s Max heat flux          0.000E+00 W/m^2
FIRE:Time      32.500 s Latent heat output     0.000E+00 W
FIRE:Time      32.500 s Max latent heat flux   0.000E+00 W/m^2
Timing for main: time 0001-01-01_00:00:32 on domain   1:    0.09692 elapsed seconds
FIRE:Time      33.000 s Average wind           0.102E+01 m/s
FIRE:Time      33.000 s Maximum wind           0.109E+01 m/s
FIRE:Time      33.000 s Fire area              0.000E+00 m^2
FIRE:Time      33.000 s Heat output            0.000E+00 W
FIRE:Time      33.000 s Max heat flux          0.000E+00 W/m^2
FIRE:Time      33.000 s Latent heat output     0.000E+00 W
FIRE:Time      33.000 s Max latent heat flux   0.000E+00 W/m^2
Timing for main: time 0001-01-01_00:00:33 on domain   1:    0.09907 elapsed seconds
FIRE:Time      33.500 s Average wind           0.102E+01 m/s
FIRE:Time      33.500 s Maximum wind           0.109E+01 m/s
FIRE:Time      33.500 s Fire area              0.000E+00 m^2
FIRE:Time      33.500 s Heat output            0.000E+00 W
FIRE:Time      33.500 s Max heat flux          0.000E+00 W/m^2
FIRE:Time      33.500 s Latent heat output     0.000E+00 W
FIRE:Time      33.500 s Max latent heat flux   0.000E+00 W/m^2
Timing for main: time 0001-01-01_00:00:33 on domain   1:    0.09594 elapsed seconds
FIRE:Time      34.000 s Average wind           0.102E+01 m/s
FIRE:Time      34.000 s Maximum wind           0.109E+01 m/s
FIRE:Time      34.000 s Fire area              0.000E+00 m^2
FIRE:Time      34.000 s Heat output            0.000E+00 W
FIRE:Time      34.000 s Max heat flux          0.000E+00 W/m^2
FIRE:Time      34.000 s Latent heat output     0.000E+00 W
FIRE:Time      34.000 s Max latent heat flux   0.000E+00 W/m^2
Timing for main: time 0001-01-01_00:00:34 on domain   1:    0.09637 elapsed seconds
FIRE:Time      34.500 s Average wind           0.102E+01 m/s
FIRE:Time      34.500 s Maximum wind           0.109E+01 m/s
FIRE:Time      34.500 s Fire area              0.000E+00 m^2
FIRE:Time      34.500 s Heat output            0.000E+00 W
FIRE:Time      34.500 s Max heat flux          0.000E+00 W/m^2
FIRE:Time      34.500 s Latent heat output     0.000E+00 W
FIRE:Time      34.500 s Max latent heat flux   0.000E+00 W/m^2
Timing for main: time 0001-01-01_00:00:34 on domain   1:    0.09613 elapsed seconds
FIRE:Time      35.000 s Average wind           0.102E+01 m/s
FIRE:Time      35.000 s Maximum wind           0.109E+01 m/s
FIRE:Time      35.000 s Fire area              0.000E+00 m^2
FIRE:Time      35.000 s Heat output            0.000E+00 W
FIRE:Time      35.000 s Max heat flux          0.000E+00 W/m^2
FIRE:Time      35.000 s Latent heat output     0.000E+00 W
FIRE:Time      35.000 s Max latent heat flux   0.000E+00 W/m^2
Timing for main: time 0001-01-01_00:00:35 on domain   1:    0.09739 elapsed seconds
FIRE:Time      35.500 s Average wind           0.102E+01 m/s
FIRE:Time      35.500 s Maximum wind           0.109E+01 m/s
FIRE:Time      35.500 s Fire area              0.000E+00 m^2
FIRE:Time      35.500 s Heat output            0.000E+00 W
FIRE:Time      35.500 s Max heat flux          0.000E+00 W/m^2
FIRE:Time      35.500 s Latent heat output     0.000E+00 W
FIRE:Time      35.500 s Max latent heat flux   0.000E+00 W/m^2
Timing for main: time 0001-01-01_00:00:35 on domain   1:    0.09664 elapsed seconds
FIRE:Time      36.000 s Average wind           0.102E+01 m/s
FIRE:Time      36.000 s Maximum wind           0.109E+01 m/s
FIRE:Time      36.000 s Fire area              0.000E+00 m^2
FIRE:Time      36.000 s Heat output            0.000E+00 W
FIRE:Time      36.000 s Max heat flux          0.000E+00 W/m^2
FIRE:Time      36.000 s Latent heat output     0.000E+00 W
FIRE:Time      36.000 s Max latent heat flux   0.000E+00 W/m^2
Timing for main: time 0001-01-01_00:00:36 on domain   1:    0.09792 elapsed seconds
FIRE:Time      36.500 s Average wind           0.102E+01 m/s
FIRE:Time      36.500 s Maximum wind           0.109E+01 m/s
FIRE:Time      36.500 s Fire area              0.000E+00 m^2
FIRE:Time      36.500 s Heat output            0.000E+00 W
FIRE:Time      36.500 s Max heat flux          0.000E+00 W/m^2
FIRE:Time      36.500 s Latent heat output     0.000E+00 W
FIRE:Time      36.500 s Max latent heat flux   0.000E+00 W/m^2
Timing for main: time 0001-01-01_00:00:36 on domain   1:    0.09651 elapsed seconds
FIRE:Time      37.000 s Average wind           0.102E+01 m/s
FIRE:Time      37.000 s Maximum wind           0.109E+01 m/s
FIRE:Time      37.000 s Fire area              0.000E+00 m^2
FIRE:Time      37.000 s Heat output            0.000E+00 W
FIRE:Time      37.000 s Max heat flux          0.000E+00 W/m^2
FIRE:Time      37.000 s Latent heat output     0.000E+00 W
FIRE:Time      37.000 s Max latent heat flux   0.000E+00 W/m^2
Timing for main: time 0001-01-01_00:00:37 on domain   1:    0.09651 elapsed seconds
FIRE:Time      37.500 s Average wind           0.102E+01 m/s
FIRE:Time      37.500 s Maximum wind           0.109E+01 m/s
FIRE:Time      37.500 s Fire area              0.000E+00 m^2
FIRE:Time      37.500 s Heat output            0.000E+00 W
FIRE:Time      37.500 s Max heat flux          0.000E+00 W/m^2
FIRE:Time      37.500 s Latent heat output     0.000E+00 W
FIRE:Time      37.500 s Max latent heat flux   0.000E+00 W/m^2
Timing for main: time 0001-01-01_00:00:37 on domain   1:    0.09829 elapsed seconds
FIRE:Time      38.000 s Average wind           0.102E+01 m/s
FIRE:Time      38.000 s Maximum wind           0.109E+01 m/s
FIRE:Time      38.000 s Fire area              0.000E+00 m^2
FIRE:Time      38.000 s Heat output            0.000E+00 W
FIRE:Time      38.000 s Max heat flux          0.000E+00 W/m^2
FIRE:Time      38.000 s Latent heat output     0.000E+00 W
FIRE:Time      38.000 s Max latent heat flux   0.000E+00 W/m^2
Timing for main: time 0001-01-01_00:00:38 on domain   1:    0.09618 elapsed seconds
FIRE:Time      38.500 s Average wind           0.102E+01 m/s
FIRE:Time      38.500 s Maximum wind           0.110E+01 m/s
FIRE:Time      38.500 s Fire area              0.000E+00 m^2
FIRE:Time      38.500 s Heat output            0.000E+00 W
FIRE:Time      38.500 s Max heat flux          0.000E+00 W/m^2
FIRE:Time      38.500 s Latent heat output     0.000E+00 W
FIRE:Time      38.500 s Max latent heat flux   0.000E+00 W/m^2
Timing for main: time 0001-01-01_00:00:38 on domain   1:    0.47058 elapsed seconds
FIRE:Time      39.000 s Average wind           0.102E+01 m/s
FIRE:Time      39.000 s Maximum wind           0.110E+01 m/s
FIRE:Time      39.000 s Fire area              0.000E+00 m^2
FIRE:Time      39.000 s Heat output            0.000E+00 W
FIRE:Time      39.000 s Max heat flux          0.000E+00 W/m^2
FIRE:Time      39.000 s Latent heat output     0.000E+00 W
FIRE:Time      39.000 s Max latent heat flux   0.000E+00 W/m^2
Timing for main: time 0001-01-01_00:00:39 on domain   1:    0.09622 elapsed seconds
FIRE:Time      39.500 s Average wind           0.102E+01 m/s
FIRE:Time      39.500 s Maximum wind           0.110E+01 m/s
FIRE:Time      39.500 s Fire area              0.000E+00 m^2
FIRE:Time      39.500 s Heat output            0.000E+00 W
FIRE:Time      39.500 s Max heat flux          0.000E+00 W/m^2
FIRE:Time      39.500 s Latent heat output     0.000E+00 W
FIRE:Time      39.500 s Max latent heat flux   0.000E+00 W/m^2
Timing for main: time 0001-01-01_00:00:39 on domain   1:    0.09701 elapsed seconds
FIRE:Time      40.000 s Average wind           0.102E+01 m/s
FIRE:Time      40.000 s Maximum wind           0.110E+01 m/s
FIRE:Time      40.000 s Fire area              0.000E+00 m^2
FIRE:Time      40.000 s Heat output            0.000E+00 W
FIRE:Time      40.000 s Max heat flux          0.000E+00 W/m^2
FIRE:Time      40.000 s Latent heat output     0.000E+00 W
FIRE:Time      40.000 s Max latent heat flux   0.000E+00 W/m^2
Timing for main: time 0001-01-01_00:00:40 on domain   1:    0.09830 elapsed seconds
FIRE:Time      40.500 s Average wind           0.102E+01 m/s
FIRE:Time      40.500 s Maximum wind           0.110E+01 m/s
FIRE:Time      40.500 s Fire area              0.000E+00 m^2
FIRE:Time      40.500 s Heat output            0.000E+00 W
FIRE:Time      40.500 s Max heat flux          0.000E+00 W/m^2
FIRE:Time      40.500 s Latent heat output     0.000E+00 W
FIRE:Time      40.500 s Max latent heat flux   0.000E+00 W/m^2
Timing for main: time 0001-01-01_00:00:40 on domain   1:    0.09549 elapsed seconds
FIRE:Time      41.000 s Average wind           0.102E+01 m/s
FIRE:Time      41.000 s Maximum wind           0.110E+01 m/s
FIRE:Time      41.000 s Fire area              0.000E+00 m^2
FIRE:Time      41.000 s Heat output            0.000E+00 W
FIRE:Time      41.000 s Max heat flux          0.000E+00 W/m^2
FIRE:Time      41.000 s Latent heat output     0.000E+00 W
FIRE:Time      41.000 s Max latent heat flux   0.000E+00 W/m^2
Timing for main: time 0001-01-01_00:00:41 on domain   1:    0.09670 elapsed seconds
FIRE:Time      41.500 s Average wind           0.102E+01 m/s
FIRE:Time      41.500 s Maximum wind           0.110E+01 m/s
FIRE:Time      41.500 s Fire area              0.000E+00 m^2
FIRE:Time      41.500 s Heat output            0.000E+00 W
FIRE:Time      41.500 s Max heat flux          0.000E+00 W/m^2
FIRE:Time      41.500 s Latent heat output     0.000E+00 W
FIRE:Time      41.500 s Max latent heat flux   0.000E+00 W/m^2
Timing for main: time 0001-01-01_00:00:41 on domain   1:    0.09572 elapsed seconds
FIRE:Time      42.000 s Average wind           0.102E+01 m/s
FIRE:Time      42.000 s Maximum wind           0.110E+01 m/s
FIRE:Time      42.000 s Fire area              0.000E+00 m^2
FIRE:Time      42.000 s Heat output            0.000E+00 W
FIRE:Time      42.000 s Max heat flux          0.000E+00 W/m^2
FIRE:Time      42.000 s Latent heat output     0.000E+00 W
FIRE:Time      42.000 s Max latent heat flux   0.000E+00 W/m^2
Timing for main: time 0001-01-01_00:00:42 on domain   1:    0.09567 elapsed seconds
FIRE:Time      42.500 s Average wind           0.102E+01 m/s
FIRE:Time      42.500 s Maximum wind           0.110E+01 m/s
FIRE:Time      42.500 s Fire area              0.000E+00 m^2
FIRE:Time      42.500 s Heat output            0.000E+00 W
FIRE:Time      42.500 s Max heat flux          0.000E+00 W/m^2
FIRE:Time      42.500 s Latent heat output     0.000E+00 W
FIRE:Time      42.500 s Max latent heat flux   0.000E+00 W/m^2
Timing for main: time 0001-01-01_00:00:42 on domain   1:    0.10158 elapsed seconds
FIRE:Time      43.000 s Average wind           0.102E+01 m/s
FIRE:Time      43.000 s Maximum wind           0.110E+01 m/s
FIRE:Time      43.000 s Fire area              0.000E+00 m^2
FIRE:Time      43.000 s Heat output            0.000E+00 W
FIRE:Time      43.000 s Max heat flux          0.000E+00 W/m^2
FIRE:Time      43.000 s Latent heat output     0.000E+00 W
FIRE:Time      43.000 s Max latent heat flux   0.000E+00 W/m^2
Timing for main: time 0001-01-01_00:00:43 on domain   1:    0.09929 elapsed seconds
FIRE:Time      43.500 s Average wind           0.102E+01 m/s
FIRE:Time      43.500 s Maximum wind           0.110E+01 m/s
FIRE:Time      43.500 s Fire area              0.000E+00 m^2
FIRE:Time      43.500 s Heat output            0.000E+00 W
FIRE:Time      43.500 s Max heat flux          0.000E+00 W/m^2
FIRE:Time      43.500 s Latent heat output     0.000E+00 W
FIRE:Time      43.500 s Max latent heat flux   0.000E+00 W/m^2
Timing for main: time 0001-01-01_00:00:43 on domain   1:    0.09887 elapsed seconds
FIRE:Time      44.000 s Average wind           0.102E+01 m/s
FIRE:Time      44.000 s Maximum wind           0.110E+01 m/s
FIRE:Time      44.000 s Fire area              0.000E+00 m^2
FIRE:Time      44.000 s Heat output            0.000E+00 W
FIRE:Time      44.000 s Max heat flux          0.000E+00 W/m^2
FIRE:Time      44.000 s Latent heat output     0.000E+00 W
FIRE:Time      44.000 s Max latent heat flux   0.000E+00 W/m^2
Timing for main: time 0001-01-01_00:00:44 on domain   1:    0.09833 elapsed seconds
FIRE:Time      44.500 s Average wind           0.102E+01 m/s
FIRE:Time      44.500 s Maximum wind           0.110E+01 m/s
FIRE:Time      44.500 s Fire area              0.000E+00 m^2
FIRE:Time      44.500 s Heat output            0.000E+00 W
FIRE:Time      44.500 s Max heat flux          0.000E+00 W/m^2
FIRE:Time      44.500 s Latent heat output     0.000E+00 W
FIRE:Time      44.500 s Max latent heat flux   0.000E+00 W/m^2
Timing for main: time 0001-01-01_00:00:44 on domain   1:    0.10019 elapsed seconds
FIRE:Time      45.000 s Average wind           0.102E+01 m/s
FIRE:Time      45.000 s Maximum wind           0.111E+01 m/s
FIRE:Time      45.000 s Fire area              0.000E+00 m^2
FIRE:Time      45.000 s Heat output            0.000E+00 W
FIRE:Time      45.000 s Max heat flux          0.000E+00 W/m^2
FIRE:Time      45.000 s Latent heat output     0.000E+00 W
FIRE:Time      45.000 s Max latent heat flux   0.000E+00 W/m^2
Timing for main: time 0001-01-01_00:00:45 on domain   1:    0.09578 elapsed seconds
FIRE:Time      45.500 s Average wind           0.102E+01 m/s
FIRE:Time      45.500 s Maximum wind           0.111E+01 m/s
FIRE:Time      45.500 s Fire area              0.000E+00 m^2
FIRE:Time      45.500 s Heat output            0.000E+00 W
FIRE:Time      45.500 s Max heat flux          0.000E+00 W/m^2
FIRE:Time      45.500 s Latent heat output     0.000E+00 W
FIRE:Time      45.500 s Max latent heat flux   0.000E+00 W/m^2
Timing for main: time 0001-01-01_00:00:45 on domain   1:    0.09593 elapsed seconds
FIRE:Time      46.000 s Average wind           0.102E+01 m/s
FIRE:Time      46.000 s Maximum wind           0.111E+01 m/s
FIRE:Time      46.000 s Fire area              0.000E+00 m^2
FIRE:Time      46.000 s Heat output            0.000E+00 W
FIRE:Time      46.000 s Max heat flux          0.000E+00 W/m^2
FIRE:Time      46.000 s Latent heat output     0.000E+00 W
FIRE:Time      46.000 s Max latent heat flux   0.000E+00 W/m^2
Timing for main: time 0001-01-01_00:00:46 on domain   1:    0.09588 elapsed seconds
FIRE:Time      46.500 s Average wind           0.102E+01 m/s
FIRE:Time      46.500 s Maximum wind           0.111E+01 m/s
FIRE:Time      46.500 s Fire area              0.000E+00 m^2
FIRE:Time      46.500 s Heat output            0.000E+00 W
FIRE:Time      46.500 s Max heat flux          0.000E+00 W/m^2
FIRE:Time      46.500 s Latent heat output     0.000E+00 W
FIRE:Time      46.500 s Max latent heat flux   0.000E+00 W/m^2
Timing for main: time 0001-01-01_00:00:46 on domain   1:    0.09497 elapsed seconds
FIRE:Time      47.000 s Average wind           0.102E+01 m/s
FIRE:Time      47.000 s Maximum wind           0.111E+01 m/s
FIRE:Time      47.000 s Fire area              0.000E+00 m^2
FIRE:Time      47.000 s Heat output            0.000E+00 W
FIRE:Time      47.000 s Max heat flux          0.000E+00 W/m^2
FIRE:Time      47.000 s Latent heat output     0.000E+00 W
FIRE:Time      47.000 s Max latent heat flux   0.000E+00 W/m^2
Timing for main: time 0001-01-01_00:00:47 on domain   1:    0.09715 elapsed seconds
FIRE:Time      47.500 s Average wind           0.102E+01 m/s
FIRE:Time      47.500 s Maximum wind           0.111E+01 m/s
FIRE:Time      47.500 s Fire area              0.000E+00 m^2
FIRE:Time      47.500 s Heat output            0.000E+00 W
FIRE:Time      47.500 s Max heat flux          0.000E+00 W/m^2
FIRE:Time      47.500 s Latent heat output     0.000E+00 W
FIRE:Time      47.500 s Max latent heat flux   0.000E+00 W/m^2
Timing for main: time 0001-01-01_00:00:47 on domain   1:    0.09553 elapsed seconds
FIRE:Time      48.000 s Average wind           0.102E+01 m/s
FIRE:Time      48.000 s Maximum wind           0.111E+01 m/s
FIRE:Time      48.000 s Fire area              0.000E+00 m^2
FIRE:Time      48.000 s Heat output            0.000E+00 W
FIRE:Time      48.000 s Max heat flux          0.000E+00 W/m^2
FIRE:Time      48.000 s Latent heat output     0.000E+00 W
FIRE:Time      48.000 s Max latent heat flux   0.000E+00 W/m^2
Timing for main: time 0001-01-01_00:00:48 on domain   1:    0.09477 elapsed seconds
FIRE:Time      48.500 s Average wind           0.102E+01 m/s
FIRE:Time      48.500 s Maximum wind           0.111E+01 m/s
FIRE:Time      48.500 s Fire area              0.000E+00 m^2
FIRE:Time      48.500 s Heat output            0.000E+00 W
FIRE:Time      48.500 s Max heat flux          0.000E+00 W/m^2
FIRE:Time      48.500 s Latent heat output     0.000E+00 W
FIRE:Time      48.500 s Max latent heat flux   0.000E+00 W/m^2
Timing for main: time 0001-01-01_00:00:48 on domain   1:    0.09544 elapsed seconds
FIRE:Time      49.000 s Average wind           0.102E+01 m/s
FIRE:Time      49.000 s Maximum wind           0.111E+01 m/s
FIRE:Time      49.000 s Fire area              0.000E+00 m^2
FIRE:Time      49.000 s Heat output            0.000E+00 W
FIRE:Time      49.000 s Max heat flux          0.000E+00 W/m^2
FIRE:Time      49.000 s Latent heat output     0.000E+00 W
FIRE:Time      49.000 s Max latent heat flux   0.000E+00 W/m^2
Timing for main: time 0001-01-01_00:00:49 on domain   1:    0.09628 elapsed seconds
FIRE:Time      49.500 s Average wind           0.102E+01 m/s
FIRE:Time      49.500 s Maximum wind           0.111E+01 m/s
FIRE:Time      49.500 s Fire area              0.000E+00 m^2
FIRE:Time      49.500 s Heat output            0.000E+00 W
FIRE:Time      49.500 s Max heat flux          0.000E+00 W/m^2
FIRE:Time      49.500 s Latent heat output     0.000E+00 W
FIRE:Time      49.500 s Max latent heat flux   0.000E+00 W/m^2
Timing for main: time 0001-01-01_00:00:49 on domain   1:    0.09662 elapsed seconds
FIRE:Time      50.000 s Average wind           0.102E+01 m/s
FIRE:Time      50.000 s Maximum wind           0.111E+01 m/s
FIRE:Time      50.000 s Fire area              0.000E+00 m^2
FIRE:Time      50.000 s Heat output            0.000E+00 W
FIRE:Time      50.000 s Max heat flux          0.000E+00 W/m^2
FIRE:Time      50.000 s Latent heat output     0.000E+00 W
FIRE:Time      50.000 s Max latent heat flux   0.000E+00 W/m^2
Timing for main: time 0001-01-01_00:00:50 on domain   1:    0.09675 elapsed seconds
FIRE:Time      50.500 s Average wind           0.102E+01 m/s
FIRE:Time      50.500 s Maximum wind           0.111E+01 m/s
FIRE:Time      50.500 s Fire area              0.000E+00 m^2
FIRE:Time      50.500 s Heat output            0.000E+00 W
FIRE:Time      50.500 s Max heat flux          0.000E+00 W/m^2
FIRE:Time      50.500 s Latent heat output     0.000E+00 W
FIRE:Time      50.500 s Max latent heat flux   0.000E+00 W/m^2
Timing for main: time 0001-01-01_00:00:50 on domain   1:    0.09600 elapsed seconds
FIRE:Time      51.000 s Average wind           0.102E+01 m/s
FIRE:Time      51.000 s Maximum wind           0.111E+01 m/s
FIRE:Time      51.000 s Fire area              0.000E+00 m^2
FIRE:Time      51.000 s Heat output            0.000E+00 W
FIRE:Time      51.000 s Max heat flux          0.000E+00 W/m^2
FIRE:Time      51.000 s Latent heat output     0.000E+00 W
FIRE:Time      51.000 s Max latent heat flux   0.000E+00 W/m^2
Timing for main: time 0001-01-01_00:00:51 on domain   1:    0.10112 elapsed seconds
FIRE:Time      51.500 s Average wind           0.102E+01 m/s
FIRE:Time      51.500 s Maximum wind           0.111E+01 m/s
FIRE:Time      51.500 s Fire area              0.000E+00 m^2
FIRE:Time      51.500 s Heat output            0.000E+00 W
FIRE:Time      51.500 s Max heat flux          0.000E+00 W/m^2
FIRE:Time      51.500 s Latent heat output     0.000E+00 W
FIRE:Time      51.500 s Max latent heat flux   0.000E+00 W/m^2
Timing for main: time 0001-01-01_00:00:51 on domain   1:    0.09870 elapsed seconds
FIRE:Time      52.000 s Average wind           0.102E+01 m/s
FIRE:Time      52.000 s Maximum wind           0.111E+01 m/s
FIRE:Time      52.000 s Fire area              0.000E+00 m^2
FIRE:Time      52.000 s Heat output            0.000E+00 W
FIRE:Time      52.000 s Max heat flux          0.000E+00 W/m^2
FIRE:Time      52.000 s Latent heat output     0.000E+00 W
FIRE:Time      52.000 s Max latent heat flux   0.000E+00 W/m^2
Timing for main: time 0001-01-01_00:00:52 on domain   1:    0.10378 elapsed seconds
FIRE:Time      52.500 s Average wind           0.102E+01 m/s
FIRE:Time      52.500 s Maximum wind           0.111E+01 m/s
FIRE:Time      52.500 s Fire area              0.000E+00 m^2
FIRE:Time      52.500 s Heat output            0.000E+00 W
FIRE:Time      52.500 s Max heat flux          0.000E+00 W/m^2
FIRE:Time      52.500 s Latent heat output     0.000E+00 W
FIRE:Time      52.500 s Max latent heat flux   0.000E+00 W/m^2
Timing for main: time 0001-01-01_00:00:52 on domain   1:    0.09745 elapsed seconds
FIRE:Time      53.000 s Average wind           0.102E+01 m/s
FIRE:Time      53.000 s Maximum wind           0.111E+01 m/s
FIRE:Time      53.000 s Fire area              0.000E+00 m^2
FIRE:Time      53.000 s Heat output            0.000E+00 W
FIRE:Time      53.000 s Max heat flux          0.000E+00 W/m^2
FIRE:Time      53.000 s Latent heat output     0.000E+00 W
FIRE:Time      53.000 s Max latent heat flux   0.000E+00 W/m^2
Timing for main: time 0001-01-01_00:00:53 on domain   1:    0.09857 elapsed seconds
FIRE:Time      53.500 s Average wind           0.102E+01 m/s
FIRE:Time      53.500 s Maximum wind           0.112E+01 m/s
FIRE:Time      53.500 s Fire area              0.000E+00 m^2
FIRE:Time      53.500 s Heat output            0.000E+00 W
FIRE:Time      53.500 s Max heat flux          0.000E+00 W/m^2
FIRE:Time      53.500 s Latent heat output     0.000E+00 W
FIRE:Time      53.500 s Max latent heat flux   0.000E+00 W/m^2
Timing for main: time 0001-01-01_00:00:53 on domain   1:    0.09559 elapsed seconds
FIRE:Time      54.000 s Average wind           0.102E+01 m/s
FIRE:Time      54.000 s Maximum wind           0.112E+01 m/s
FIRE:Time      54.000 s Fire area              0.000E+00 m^2
FIRE:Time      54.000 s Heat output            0.000E+00 W
FIRE:Time      54.000 s Max heat flux          0.000E+00 W/m^2
FIRE:Time      54.000 s Latent heat output     0.000E+00 W
FIRE:Time      54.000 s Max latent heat flux   0.000E+00 W/m^2
Timing for main: time 0001-01-01_00:00:54 on domain   1:    0.09537 elapsed seconds
FIRE:Time      54.500 s Average wind           0.102E+01 m/s
FIRE:Time      54.500 s Maximum wind           0.112E+01 m/s
FIRE:Time      54.500 s Fire area              0.000E+00 m^2
FIRE:Time      54.500 s Heat output            0.000E+00 W
FIRE:Time      54.500 s Max heat flux          0.000E+00 W/m^2
FIRE:Time      54.500 s Latent heat output     0.000E+00 W
FIRE:Time      54.500 s Max latent heat flux   0.000E+00 W/m^2
Timing for main: time 0001-01-01_00:00:54 on domain   1:    0.09580 elapsed seconds
FIRE:Time      55.000 s Average wind           0.102E+01 m/s
FIRE:Time      55.000 s Maximum wind           0.112E+01 m/s
FIRE:Time      55.000 s Fire area              0.000E+00 m^2
FIRE:Time      55.000 s Heat output            0.000E+00 W
FIRE:Time      55.000 s Max heat flux          0.000E+00 W/m^2
FIRE:Time      55.000 s Latent heat output     0.000E+00 W
FIRE:Time      55.000 s Max latent heat flux   0.000E+00 W/m^2
Timing for main: time 0001-01-01_00:00:55 on domain   1:    0.09685 elapsed seconds
FIRE:Time      55.500 s Average wind           0.102E+01 m/s
FIRE:Time      55.500 s Maximum wind           0.112E+01 m/s
FIRE:Time      55.500 s Fire area              0.000E+00 m^2
FIRE:Time      55.500 s Heat output            0.000E+00 W
FIRE:Time      55.500 s Max heat flux          0.000E+00 W/m^2
FIRE:Time      55.500 s Latent heat output     0.000E+00 W
FIRE:Time      55.500 s Max latent heat flux   0.000E+00 W/m^2
Timing for main: time 0001-01-01_00:00:55 on domain   1:    0.09511 elapsed seconds
FIRE:Time      56.000 s Average wind           0.102E+01 m/s
FIRE:Time      56.000 s Maximum wind           0.112E+01 m/s
FIRE:Time      56.000 s Fire area              0.000E+00 m^2
FIRE:Time      56.000 s Heat output            0.000E+00 W
FIRE:Time      56.000 s Max heat flux          0.000E+00 W/m^2
FIRE:Time      56.000 s Latent heat output     0.000E+00 W
FIRE:Time      56.000 s Max latent heat flux   0.000E+00 W/m^2
Timing for main: time 0001-01-01_00:00:56 on domain   1:    0.09740 elapsed seconds
FIRE:Time      56.500 s Average wind           0.102E+01 m/s
FIRE:Time      56.500 s Maximum wind           0.112E+01 m/s
FIRE:Time      56.500 s Fire area              0.000E+00 m^2
FIRE:Time      56.500 s Heat output            0.000E+00 W
FIRE:Time      56.500 s Max heat flux          0.000E+00 W/m^2
FIRE:Time      56.500 s Latent heat output     0.000E+00 W
FIRE:Time      56.500 s Max latent heat flux   0.000E+00 W/m^2
Timing for main: time 0001-01-01_00:00:56 on domain   1:    0.09527 elapsed seconds
FIRE:Time      57.000 s Average wind           0.102E+01 m/s
FIRE:Time      57.000 s Maximum wind           0.112E+01 m/s
FIRE:Time      57.000 s Fire area              0.000E+00 m^2
FIRE:Time      57.000 s Heat output            0.000E+00 W
FIRE:Time      57.000 s Max heat flux          0.000E+00 W/m^2
FIRE:Time      57.000 s Latent heat output     0.000E+00 W
FIRE:Time      57.000 s Max latent heat flux   0.000E+00 W/m^2
Timing for main: time 0001-01-01_00:00:57 on domain   1:    0.09698 elapsed seconds
FIRE:Time      57.500 s Average wind           0.102E+01 m/s
FIRE:Time      57.500 s Maximum wind           0.112E+01 m/s
FIRE:Time      57.500 s Fire area              0.000E+00 m^2
FIRE:Time      57.500 s Heat output            0.000E+00 W
FIRE:Time      57.500 s Max heat flux          0.000E+00 W/m^2
FIRE:Time      57.500 s Latent heat output     0.000E+00 W
FIRE:Time      57.500 s Max latent heat flux   0.000E+00 W/m^2
Timing for main: time 0001-01-01_00:00:57 on domain   1:    0.09662 elapsed seconds
FIRE:Time      58.000 s Average wind           0.102E+01 m/s
FIRE:Time      58.000 s Maximum wind           0.112E+01 m/s
FIRE:Time      58.000 s Fire area              0.000E+00 m^2
FIRE:Time      58.000 s Heat output            0.000E+00 W
FIRE:Time      58.000 s Max heat flux          0.000E+00 W/m^2
FIRE:Time      58.000 s Latent heat output     0.000E+00 W
FIRE:Time      58.000 s Max latent heat flux   0.000E+00 W/m^2
Timing for main: time 0001-01-01_00:00:58 on domain   1:    0.09818 elapsed seconds
FIRE:Time      58.500 s Average wind           0.102E+01 m/s
FIRE:Time      58.500 s Maximum wind           0.112E+01 m/s
FIRE:Time      58.500 s Fire area              0.000E+00 m^2
FIRE:Time      58.500 s Heat output            0.000E+00 W
FIRE:Time      58.500 s Max heat flux          0.000E+00 W/m^2
FIRE:Time      58.500 s Latent heat output     0.000E+00 W
FIRE:Time      58.500 s Max latent heat flux   0.000E+00 W/m^2
Timing for main: time 0001-01-01_00:00:58 on domain   1:    0.09854 elapsed seconds
FIRE:Time      59.000 s Average wind           0.102E+01 m/s
FIRE:Time      59.000 s Maximum wind           0.112E+01 m/s
FIRE:Time      59.000 s Fire area              0.000E+00 m^2
FIRE:Time      59.000 s Heat output            0.000E+00 W
FIRE:Time      59.000 s Max heat flux          0.000E+00 W/m^2
FIRE:Time      59.000 s Latent heat output     0.000E+00 W
FIRE:Time      59.000 s Max latent heat flux   0.000E+00 W/m^2
Timing for main: time 0001-01-01_00:00:59 on domain   1:    0.10762 elapsed seconds
FIRE:Time      59.500 s Average wind           0.102E+01 m/s
FIRE:Time      59.500 s Maximum wind           0.112E+01 m/s
FIRE:Time      59.500 s Fire area              0.000E+00 m^2
FIRE:Time      59.500 s Heat output            0.000E+00 W
FIRE:Time      59.500 s Max heat flux          0.000E+00 W/m^2
FIRE:Time      59.500 s Latent heat output     0.000E+00 W
FIRE:Time      59.500 s Max latent heat flux   0.000E+00 W/m^2
Timing for main: time 0001-01-01_00:00:59 on domain   1:    0.09925 elapsed seconds
FIRE:Time      60.000 s Average wind           0.102E+01 m/s
FIRE:Time      60.000 s Maximum wind           0.112E+01 m/s
FIRE:Time      60.000 s Fire area              0.000E+00 m^2
FIRE:Time      60.000 s Heat output            0.000E+00 W
FIRE:Time      60.000 s Max heat flux          0.000E+00 W/m^2
FIRE:Time      60.000 s Latent heat output     0.000E+00 W
FIRE:Time      60.000 s Max latent heat flux   0.000E+00 W/m^2
Timing for main: time 0001-01-01_00:01:00 on domain   1:    0.09756 elapsed seconds
FIRE:Time      60.500 s Average wind           0.102E+01 m/s
FIRE:Time      60.500 s Maximum wind           0.112E+01 m/s
FIRE:Time      60.500 s Fire area              0.000E+00 m^2
FIRE:Time      60.500 s Heat output            0.000E+00 W
FIRE:Time      60.500 s Max heat flux          0.000E+00 W/m^2
FIRE:Time      60.500 s Latent heat output     0.000E+00 W
FIRE:Time      60.500 s Max latent heat flux   0.000E+00 W/m^2
Timing for main: time 0001-01-01_00:01:00 on domain   1:    0.09590 elapsed seconds
FIRE:Time      61.000 s Average wind           0.102E+01 m/s
FIRE:Time      61.000 s Maximum wind           0.113E+01 m/s
FIRE:Time      61.000 s Fire area              0.000E+00 m^2
FIRE:Time      61.000 s Heat output            0.000E+00 W
FIRE:Time      61.000 s Max heat flux          0.000E+00 W/m^2
FIRE:Time      61.000 s Latent heat output     0.000E+00 W
FIRE:Time      61.000 s Max latent heat flux   0.000E+00 W/m^2
Timing for main: time 0001-01-01_00:01:01 on domain   1:    0.09705 elapsed seconds
FIRE:Time      61.500 s Average wind           0.102E+01 m/s
FIRE:Time      61.500 s Maximum wind           0.113E+01 m/s
FIRE:Time      61.500 s Fire area              0.000E+00 m^2
FIRE:Time      61.500 s Heat output            0.000E+00 W
FIRE:Time      61.500 s Max heat flux          0.000E+00 W/m^2
FIRE:Time      61.500 s Latent heat output     0.000E+00 W
FIRE:Time      61.500 s Max latent heat flux   0.000E+00 W/m^2
Timing for main: time 0001-01-01_00:01:01 on domain   1:    0.09632 elapsed seconds
FIRE:Time      62.000 s Average wind           0.102E+01 m/s
FIRE:Time      62.000 s Maximum wind           0.113E+01 m/s
FIRE:Time      62.000 s Fire area              0.000E+00 m^2
FIRE:Time      62.000 s Heat output            0.000E+00 W
FIRE:Time      62.000 s Max heat flux          0.000E+00 W/m^2
FIRE:Time      62.000 s Latent heat output     0.000E+00 W
FIRE:Time      62.000 s Max latent heat flux   0.000E+00 W/m^2
Timing for main: time 0001-01-01_00:01:02 on domain   1:    0.10269 elapsed seconds
FIRE:Time      62.500 s Average wind           0.102E+01 m/s
FIRE:Time      62.500 s Maximum wind           0.113E+01 m/s
FIRE:Time      62.500 s Fire area              0.000E+00 m^2
FIRE:Time      62.500 s Heat output            0.000E+00 W
FIRE:Time      62.500 s Max heat flux          0.000E+00 W/m^2
FIRE:Time      62.500 s Latent heat output     0.000E+00 W
FIRE:Time      62.500 s Max latent heat flux   0.000E+00 W/m^2
Timing for main: time 0001-01-01_00:01:02 on domain   1:    0.10038 elapsed seconds
FIRE:Time      63.000 s Average wind           0.102E+01 m/s
FIRE:Time      63.000 s Maximum wind           0.113E+01 m/s
FIRE:Time      63.000 s Fire area              0.000E+00 m^2
FIRE:Time      63.000 s Heat output            0.000E+00 W
FIRE:Time      63.000 s Max heat flux          0.000E+00 W/m^2
FIRE:Time      63.000 s Latent heat output     0.000E+00 W
FIRE:Time      63.000 s Max latent heat flux   0.000E+00 W/m^2
Timing for main: time 0001-01-01_00:01:03 on domain   1:    0.32263 elapsed seconds
FIRE:Time      63.500 s Average wind           0.102E+01 m/s
FIRE:Time      63.500 s Maximum wind           0.113E+01 m/s
FIRE:Time      63.500 s Fire area              0.000E+00 m^2
FIRE:Time      63.500 s Heat output            0.000E+00 W
FIRE:Time      63.500 s Max heat flux          0.000E+00 W/m^2
FIRE:Time      63.500 s Latent heat output     0.000E+00 W
FIRE:Time      63.500 s Max latent heat flux   0.000E+00 W/m^2
Timing for main: time 0001-01-01_00:01:03 on domain   1:    0.09527 elapsed seconds
FIRE:Time      64.000 s Average wind           0.102E+01 m/s
FIRE:Time      64.000 s Maximum wind           0.113E+01 m/s
FIRE:Time      64.000 s Fire area              0.000E+00 m^2
FIRE:Time      64.000 s Heat output            0.000E+00 W
FIRE:Time      64.000 s Max heat flux          0.000E+00 W/m^2
FIRE:Time      64.000 s Latent heat output     0.000E+00 W
FIRE:Time      64.000 s Max latent heat flux   0.000E+00 W/m^2
Timing for main: time 0001-01-01_00:01:04 on domain   1:    0.10046 elapsed seconds
FIRE:Time      64.500 s Average wind           0.102E+01 m/s
FIRE:Time      64.500 s Maximum wind           0.113E+01 m/s
FIRE:Time      64.500 s Fire area              0.000E+00 m^2
FIRE:Time      64.500 s Heat output            0.000E+00 W
FIRE:Time      64.500 s Max heat flux          0.000E+00 W/m^2
FIRE:Time      64.500 s Latent heat output     0.000E+00 W
FIRE:Time      64.500 s Max latent heat flux   0.000E+00 W/m^2
Timing for main: time 0001-01-01_00:01:04 on domain   1:    0.09648 elapsed seconds
FIRE:Time      65.000 s Average wind           0.102E+01 m/s
FIRE:Time      65.000 s Maximum wind           0.113E+01 m/s
FIRE:Time      65.000 s Fire area              0.000E+00 m^2
FIRE:Time      65.000 s Heat output            0.000E+00 W
FIRE:Time      65.000 s Max heat flux          0.000E+00 W/m^2
FIRE:Time      65.000 s Latent heat output     0.000E+00 W
FIRE:Time      65.000 s Max latent heat flux   0.000E+00 W/m^2
Timing for main: time 0001-01-01_00:01:05 on domain   1:    0.09728 elapsed seconds
FIRE:Time      65.500 s Average wind           0.102E+01 m/s
FIRE:Time      65.500 s Maximum wind           0.113E+01 m/s
FIRE:Time      65.500 s Fire area              0.000E+00 m^2
FIRE:Time      65.500 s Heat output            0.000E+00 W
FIRE:Time      65.500 s Max heat flux          0.000E+00 W/m^2
FIRE:Time      65.500 s Latent heat output     0.000E+00 W
FIRE:Time      65.500 s Max latent heat flux   0.000E+00 W/m^2
Timing for main: time 0001-01-01_00:01:05 on domain   1:    0.09841 elapsed seconds
FIRE:Time      66.000 s Average wind           0.102E+01 m/s
FIRE:Time      66.000 s Maximum wind           0.113E+01 m/s
FIRE:Time      66.000 s Fire area              0.000E+00 m^2
FIRE:Time      66.000 s Heat output            0.000E+00 W
FIRE:Time      66.000 s Max heat flux          0.000E+00 W/m^2
FIRE:Time      66.000 s Latent heat output     0.000E+00 W
FIRE:Time      66.000 s Max latent heat flux   0.000E+00 W/m^2
Timing for main: time 0001-01-01_00:01:06 on domain   1:    0.09652 elapsed seconds
FIRE:Time      66.500 s Average wind           0.102E+01 m/s
FIRE:Time      66.500 s Maximum wind           0.113E+01 m/s
FIRE:Time      66.500 s Fire area              0.000E+00 m^2
FIRE:Time      66.500 s Heat output            0.000E+00 W
FIRE:Time      66.500 s Max heat flux          0.000E+00 W/m^2
FIRE:Time      66.500 s Latent heat output     0.000E+00 W
FIRE:Time      66.500 s Max latent heat flux   0.000E+00 W/m^2
Timing for main: time 0001-01-01_00:01:06 on domain   1:    0.09524 elapsed seconds
FIRE:Time      67.000 s Average wind           0.102E+01 m/s
FIRE:Time      67.000 s Maximum wind           0.113E+01 m/s
FIRE:Time      67.000 s Fire area              0.000E+00 m^2
FIRE:Time      67.000 s Heat output            0.000E+00 W
FIRE:Time      67.000 s Max heat flux          0.000E+00 W/m^2
FIRE:Time      67.000 s Latent heat output     0.000E+00 W
FIRE:Time      67.000 s Max latent heat flux   0.000E+00 W/m^2
Timing for main: time 0001-01-01_00:01:07 on domain   1:    0.09682 elapsed seconds
FIRE:Time      67.500 s Average wind           0.102E+01 m/s
FIRE:Time      67.500 s Maximum wind           0.113E+01 m/s
FIRE:Time      67.500 s Fire area              0.000E+00 m^2
FIRE:Time      67.500 s Heat output            0.000E+00 W
FIRE:Time      67.500 s Max heat flux          0.000E+00 W/m^2
FIRE:Time      67.500 s Latent heat output     0.000E+00 W
FIRE:Time      67.500 s Max latent heat flux   0.000E+00 W/m^2
Timing for main: time 0001-01-01_00:01:07 on domain   1:    0.09706 elapsed seconds
FIRE:Time      68.000 s Average wind           0.102E+01 m/s
FIRE:Time      68.000 s Maximum wind           0.113E+01 m/s
FIRE:Time      68.000 s Fire area              0.000E+00 m^2
FIRE:Time      68.000 s Heat output            0.000E+00 W
FIRE:Time      68.000 s Max heat flux          0.000E+00 W/m^2
FIRE:Time      68.000 s Latent heat output     0.000E+00 W
FIRE:Time      68.000 s Max latent heat flux   0.000E+00 W/m^2
Timing for main: time 0001-01-01_00:01:08 on domain   1:    0.09580 elapsed seconds
FIRE:Time      68.500 s Average wind           0.102E+01 m/s
FIRE:Time      68.500 s Maximum wind           0.113E+01 m/s
FIRE:Time      68.500 s Fire area              0.000E+00 m^2
FIRE:Time      68.500 s Heat output            0.000E+00 W
FIRE:Time      68.500 s Max heat flux          0.000E+00 W/m^2
FIRE:Time      68.500 s Latent heat output     0.000E+00 W
FIRE:Time      68.500 s Max latent heat flux   0.000E+00 W/m^2
Timing for main: time 0001-01-01_00:01:08 on domain   1:    0.09678 elapsed seconds
FIRE:Time      69.000 s Average wind           0.102E+01 m/s
FIRE:Time      69.000 s Maximum wind           0.114E+01 m/s
FIRE:Time      69.000 s Fire area              0.000E+00 m^2
FIRE:Time      69.000 s Heat output            0.000E+00 W
FIRE:Time      69.000 s Max heat flux          0.000E+00 W/m^2
FIRE:Time      69.000 s Latent heat output     0.000E+00 W
FIRE:Time      69.000 s Max latent heat flux   0.000E+00 W/m^2
Timing for main: time 0001-01-01_00:01:09 on domain   1:    0.09602 elapsed seconds
FIRE:Time      69.500 s Average wind           0.102E+01 m/s
FIRE:Time      69.500 s Maximum wind           0.114E+01 m/s
FIRE:Time      69.500 s Fire area              0.000E+00 m^2
FIRE:Time      69.500 s Heat output            0.000E+00 W
FIRE:Time      69.500 s Max heat flux          0.000E+00 W/m^2
FIRE:Time      69.500 s Latent heat output     0.000E+00 W
FIRE:Time      69.500 s Max latent heat flux   0.000E+00 W/m^2
Timing for main: time 0001-01-01_00:01:09 on domain   1:    0.09642 elapsed seconds
FIRE:Time      70.000 s Average wind           0.102E+01 m/s
FIRE:Time      70.000 s Maximum wind           0.114E+01 m/s
FIRE:Time      70.000 s Fire area              0.000E+00 m^2
FIRE:Time      70.000 s Heat output            0.000E+00 W
FIRE:Time      70.000 s Max heat flux          0.000E+00 W/m^2
FIRE:Time      70.000 s Latent heat output     0.000E+00 W
FIRE:Time      70.000 s Max latent heat flux   0.000E+00 W/m^2
Timing for main: time 0001-01-01_00:01:10 on domain   1:    0.09708 elapsed seconds
FIRE:Time      70.500 s Average wind           0.102E+01 m/s
FIRE:Time      70.500 s Maximum wind           0.114E+01 m/s
FIRE:Time      70.500 s Fire area              0.000E+00 m^2
FIRE:Time      70.500 s Heat output            0.000E+00 W
FIRE:Time      70.500 s Max heat flux          0.000E+00 W/m^2
FIRE:Time      70.500 s Latent heat output     0.000E+00 W
FIRE:Time      70.500 s Max latent heat flux   0.000E+00 W/m^2
Timing for main: time 0001-01-01_00:01:10 on domain   1:    0.09752 elapsed seconds
FIRE:Time      71.000 s Average wind           0.102E+01 m/s
FIRE:Time      71.000 s Maximum wind           0.114E+01 m/s
FIRE:Time      71.000 s Fire area              0.000E+00 m^2
FIRE:Time      71.000 s Heat output            0.000E+00 W
FIRE:Time      71.000 s Max heat flux          0.000E+00 W/m^2
FIRE:Time      71.000 s Latent heat output     0.000E+00 W
FIRE:Time      71.000 s Max latent heat flux   0.000E+00 W/m^2
Timing for main: time 0001-01-01_00:01:11 on domain   1:    0.09738 elapsed seconds
FIRE:Time      71.500 s Average wind           0.102E+01 m/s
FIRE:Time      71.500 s Maximum wind           0.114E+01 m/s
FIRE:Time      71.500 s Fire area              0.000E+00 m^2
FIRE:Time      71.500 s Heat output            0.000E+00 W
FIRE:Time      71.500 s Max heat flux          0.000E+00 W/m^2
FIRE:Time      71.500 s Latent heat output     0.000E+00 W
FIRE:Time      71.500 s Max latent heat flux   0.000E+00 W/m^2
Timing for main: time 0001-01-01_00:01:11 on domain   1:    0.09598 elapsed seconds
FIRE:Time      72.000 s Average wind           0.102E+01 m/s
FIRE:Time      72.000 s Maximum wind           0.114E+01 m/s
FIRE:Time      72.000 s Fire area              0.000E+00 m^2
FIRE:Time      72.000 s Heat output            0.000E+00 W
FIRE:Time      72.000 s Max heat flux          0.000E+00 W/m^2
FIRE:Time      72.000 s Latent heat output     0.000E+00 W
FIRE:Time      72.000 s Max latent heat flux   0.000E+00 W/m^2
Timing for main: time 0001-01-01_00:01:12 on domain   1:    0.09634 elapsed seconds
FIRE:Time      72.500 s Average wind           0.102E+01 m/s
FIRE:Time      72.500 s Maximum wind           0.114E+01 m/s
FIRE:Time      72.500 s Fire area              0.000E+00 m^2
FIRE:Time      72.500 s Heat output            0.000E+00 W
FIRE:Time      72.500 s Max heat flux          0.000E+00 W/m^2
FIRE:Time      72.500 s Latent heat output     0.000E+00 W
FIRE:Time      72.500 s Max latent heat flux   0.000E+00 W/m^2
Timing for main: time 0001-01-01_00:01:12 on domain   1:    0.09835 elapsed seconds
FIRE:Time      73.000 s Average wind           0.102E+01 m/s
FIRE:Time      73.000 s Maximum wind           0.114E+01 m/s
FIRE:Time      73.000 s Fire area              0.000E+00 m^2
FIRE:Time      73.000 s Heat output            0.000E+00 W
FIRE:Time      73.000 s Max heat flux          0.000E+00 W/m^2
FIRE:Time      73.000 s Latent heat output     0.000E+00 W
FIRE:Time      73.000 s Max latent heat flux   0.000E+00 W/m^2
Timing for main: time 0001-01-01_00:01:13 on domain   1:    0.09649 elapsed seconds
FIRE:Time      73.500 s Average wind           0.102E+01 m/s
FIRE:Time      73.500 s Maximum wind           0.114E+01 m/s
FIRE:Time      73.500 s Fire area              0.000E+00 m^2
FIRE:Time      73.500 s Heat output            0.000E+00 W
FIRE:Time      73.500 s Max heat flux          0.000E+00 W/m^2
FIRE:Time      73.500 s Latent heat output     0.000E+00 W
FIRE:Time      73.500 s Max latent heat flux   0.000E+00 W/m^2
Timing for main: time 0001-01-01_00:01:13 on domain   1:    0.09551 elapsed seconds
FIRE:Time      74.000 s Average wind           0.102E+01 m/s
FIRE:Time      74.000 s Maximum wind           0.114E+01 m/s
FIRE:Time      74.000 s Fire area              0.000E+00 m^2
FIRE:Time      74.000 s Heat output            0.000E+00 W
FIRE:Time      74.000 s Max heat flux          0.000E+00 W/m^2
FIRE:Time      74.000 s Latent heat output     0.000E+00 W
FIRE:Time      74.000 s Max latent heat flux   0.000E+00 W/m^2
Timing for main: time 0001-01-01_00:01:14 on domain   1:    0.09805 elapsed seconds
FIRE:Time      74.500 s Average wind           0.102E+01 m/s
FIRE:Time      74.500 s Maximum wind           0.114E+01 m/s
FIRE:Time      74.500 s Fire area              0.000E+00 m^2
FIRE:Time      74.500 s Heat output            0.000E+00 W
FIRE:Time      74.500 s Max heat flux          0.000E+00 W/m^2
FIRE:Time      74.500 s Latent heat output     0.000E+00 W
FIRE:Time      74.500 s Max latent heat flux   0.000E+00 W/m^2
Timing for main: time 0001-01-01_00:01:14 on domain   1:    0.09652 elapsed seconds
FIRE:Time      75.000 s Average wind           0.102E+01 m/s
FIRE:Time      75.000 s Maximum wind           0.114E+01 m/s
FIRE:Time      75.000 s Fire area              0.000E+00 m^2
FIRE:Time      75.000 s Heat output            0.000E+00 W
FIRE:Time      75.000 s Max heat flux          0.000E+00 W/m^2
FIRE:Time      75.000 s Latent heat output     0.000E+00 W
FIRE:Time      75.000 s Max latent heat flux   0.000E+00 W/m^2
Timing for main: time 0001-01-01_00:01:15 on domain   1:    0.09699 elapsed seconds
FIRE:Time      75.500 s Average wind           0.102E+01 m/s
FIRE:Time      75.500 s Maximum wind           0.114E+01 m/s
FIRE:Time      75.500 s Fire area              0.000E+00 m^2
FIRE:Time      75.500 s Heat output            0.000E+00 W
FIRE:Time      75.500 s Max heat flux          0.000E+00 W/m^2
FIRE:Time      75.500 s Latent heat output     0.000E+00 W
FIRE:Time      75.500 s Max latent heat flux   0.000E+00 W/m^2
Timing for main: time 0001-01-01_00:01:15 on domain   1:    0.09678 elapsed seconds
FIRE:Time      76.000 s Average wind           0.102E+01 m/s
FIRE:Time      76.000 s Maximum wind           0.114E+01 m/s
FIRE:Time      76.000 s Fire area              0.000E+00 m^2
FIRE:Time      76.000 s Heat output            0.000E+00 W
FIRE:Time      76.000 s Max heat flux          0.000E+00 W/m^2
FIRE:Time      76.000 s Latent heat output     0.000E+00 W
FIRE:Time      76.000 s Max latent heat flux   0.000E+00 W/m^2
Timing for main: time 0001-01-01_00:01:16 on domain   1:    0.09665 elapsed seconds
FIRE:Time      76.500 s Average wind           0.102E+01 m/s
FIRE:Time      76.500 s Maximum wind           0.114E+01 m/s
FIRE:Time      76.500 s Fire area              0.000E+00 m^2
FIRE:Time      76.500 s Heat output            0.000E+00 W
FIRE:Time      76.500 s Max heat flux          0.000E+00 W/m^2
FIRE:Time      76.500 s Latent heat output     0.000E+00 W
[...]
FIRE:Time    3581.000 s Fire area              0.581E+06 m^2
FIRE:Time    3581.000 s Heat output            0.443E+09 W
FIRE:Time    3581.000 s Max heat flux          0.604E+05 W/m^2
FIRE:Time    3581.000 s Latent heat output     0.407E+08 W
FIRE:Time    3581.000 s Max latent heat flux   0.555E+04 W/m^2
Timing for main: time 0001-01-01_00:59:41 on domain   1:    0.10065 elapsed seconds
FIRE:Time    3581.500 s Average wind           0.999E+00 m/s
FIRE:Time    3581.500 s Maximum wind           0.113E+01 m/s
FIRE:Time    3581.500 s Fire area              0.581E+06 m^2
FIRE:Time    3581.500 s Heat output            0.436E+09 W
FIRE:Time    3581.500 s Max heat flux          0.484E+05 W/m^2
FIRE:Time    3581.500 s Latent heat output     0.400E+08 W
FIRE:Time    3581.500 s Max latent heat flux   0.444E+04 W/m^2
Timing for main: time 0001-01-01_00:59:41 on domain   1:    0.09965 elapsed seconds
FIRE:Time    3582.000 s Average wind           0.999E+00 m/s
FIRE:Time    3582.000 s Maximum wind           0.113E+01 m/s
FIRE:Time    3582.000 s Fire area              0.582E+06 m^2
FIRE:Time    3582.000 s Heat output            0.436E+09 W
FIRE:Time    3582.000 s Max heat flux          0.434E+05 W/m^2
FIRE:Time    3582.000 s Latent heat output     0.400E+08 W
FIRE:Time    3582.000 s Max latent heat flux   0.398E+04 W/m^2
Timing for main: time 0001-01-01_00:59:42 on domain   1:    0.10066 elapsed seconds
FIRE:Time    3582.500 s Average wind           0.999E+00 m/s
FIRE:Time    3582.500 s Maximum wind           0.113E+01 m/s
FIRE:Time    3582.500 s Fire area              0.582E+06 m^2
FIRE:Time    3582.500 s Heat output            0.447E+09 W
FIRE:Time    3582.500 s Max heat flux          0.512E+05 W/m^2
FIRE:Time    3582.500 s Latent heat output     0.410E+08 W
FIRE:Time    3582.500 s Max latent heat flux   0.470E+04 W/m^2
Timing for main: time 0001-01-01_00:59:42 on domain   1:    0.10023 elapsed seconds
FIRE:Time    3583.000 s Average wind           0.999E+00 m/s
FIRE:Time    3583.000 s Maximum wind           0.113E+01 m/s
FIRE:Time    3583.000 s Fire area              0.582E+06 m^2
FIRE:Time    3583.000 s Heat output            0.456E+09 W
FIRE:Time    3583.000 s Max heat flux          0.727E+05 W/m^2
FIRE:Time    3583.000 s Latent heat output     0.419E+08 W
FIRE:Time    3583.000 s Max latent heat flux   0.667E+04 W/m^2
Timing for main: time 0001-01-01_00:59:43 on domain   1:    0.10004 elapsed seconds
FIRE:Time    3583.500 s Average wind           0.999E+00 m/s
FIRE:Time    3583.500 s Maximum wind           0.113E+01 m/s
FIRE:Time    3583.500 s Fire area              0.582E+06 m^2
FIRE:Time    3583.500 s Heat output            0.443E+09 W
FIRE:Time    3583.500 s Max heat flux          0.547E+05 W/m^2
FIRE:Time    3583.500 s Latent heat output     0.407E+08 W
FIRE:Time    3583.500 s Max latent heat flux   0.502E+04 W/m^2
Timing for main: time 0001-01-01_00:59:43 on domain   1:    0.10044 elapsed seconds
FIRE:Time    3584.000 s Average wind           0.999E+00 m/s
FIRE:Time    3584.000 s Maximum wind           0.113E+01 m/s
FIRE:Time    3584.000 s Fire area              0.582E+06 m^2
FIRE:Time    3584.000 s Heat output            0.443E+09 W
FIRE:Time    3584.000 s Max heat flux          0.480E+05 W/m^2
FIRE:Time    3584.000 s Latent heat output     0.407E+08 W
FIRE:Time    3584.000 s Max latent heat flux   0.440E+04 W/m^2
Timing for main: time 0001-01-01_00:59:44 on domain   1:    0.10142 elapsed seconds
FIRE:Time    3584.500 s Average wind           0.999E+00 m/s
FIRE:Time    3584.500 s Maximum wind           0.113E+01 m/s
FIRE:Time    3584.500 s Fire area              0.582E+06 m^2
FIRE:Time    3584.500 s Heat output            0.444E+09 W
FIRE:Time    3584.500 s Max heat flux          0.654E+05 W/m^2
FIRE:Time    3584.500 s Latent heat output     0.408E+08 W
FIRE:Time    3584.500 s Max latent heat flux   0.601E+04 W/m^2
Timing for main: time 0001-01-01_00:59:44 on domain   1:    0.09962 elapsed seconds
FIRE:Time    3585.000 s Average wind           0.999E+00 m/s
FIRE:Time    3585.000 s Maximum wind           0.113E+01 m/s
FIRE:Time    3585.000 s Fire area              0.582E+06 m^2
FIRE:Time    3585.000 s Heat output            0.432E+09 W
FIRE:Time    3585.000 s Max heat flux          0.262E+05 W/m^2
FIRE:Time    3585.000 s Latent heat output     0.397E+08 W
FIRE:Time    3585.000 s Max latent heat flux   0.241E+04 W/m^2
Timing for main: time 0001-01-01_00:59:45 on domain   1:    0.09954 elapsed seconds
FIRE:Time    3585.500 s Average wind           0.999E+00 m/s
FIRE:Time    3585.500 s Maximum wind           0.113E+01 m/s
FIRE:Time    3585.500 s Fire area              0.582E+06 m^2
FIRE:Time    3585.500 s Heat output            0.443E+09 W
FIRE:Time    3585.500 s Max heat flux          0.391E+05 W/m^2
FIRE:Time    3585.500 s Latent heat output     0.407E+08 W
FIRE:Time    3585.500 s Max latent heat flux   0.359E+04 W/m^2
Timing for main: time 0001-01-01_00:59:45 on domain   1:    0.10041 elapsed seconds
FIRE:Time    3586.000 s Average wind           0.999E+00 m/s
FIRE:Time    3586.000 s Maximum wind           0.113E+01 m/s
FIRE:Time    3586.000 s Fire area              0.582E+06 m^2
FIRE:Time    3586.000 s Heat output            0.434E+09 W
FIRE:Time    3586.000 s Max heat flux          0.267E+05 W/m^2
FIRE:Time    3586.000 s Latent heat output     0.398E+08 W
FIRE:Time    3586.000 s Max latent heat flux   0.245E+04 W/m^2
Timing for main: time 0001-01-01_00:59:46 on domain   1:    0.09971 elapsed seconds
FIRE:Time    3586.500 s Average wind           0.999E+00 m/s
FIRE:Time    3586.500 s Maximum wind           0.113E+01 m/s
FIRE:Time    3586.500 s Fire area              0.582E+06 m^2
FIRE:Time    3586.500 s Heat output            0.452E+09 W
FIRE:Time    3586.500 s Max heat flux          0.495E+05 W/m^2
FIRE:Time    3586.500 s Latent heat output     0.415E+08 W
FIRE:Time    3586.500 s Max latent heat flux   0.454E+04 W/m^2
Timing for main: time 0001-01-01_00:59:46 on domain   1:    0.09927 elapsed seconds
FIRE:Time    3587.000 s Average wind           0.999E+00 m/s
FIRE:Time    3587.000 s Maximum wind           0.113E+01 m/s
FIRE:Time    3587.000 s Fire area              0.582E+06 m^2
FIRE:Time    3587.000 s Heat output            0.441E+09 W
FIRE:Time    3587.000 s Max heat flux          0.499E+05 W/m^2
FIRE:Time    3587.000 s Latent heat output     0.405E+08 W
FIRE:Time    3587.000 s Max latent heat flux   0.458E+04 W/m^2
Timing for main: time 0001-01-01_00:59:47 on domain   1:    0.09969 elapsed seconds
FIRE:Time    3587.500 s Average wind           0.999E+00 m/s
FIRE:Time    3587.500 s Maximum wind           0.113E+01 m/s
FIRE:Time    3587.500 s Fire area              0.582E+06 m^2
FIRE:Time    3587.500 s Heat output            0.431E+09 W
FIRE:Time    3587.500 s Max heat flux          0.262E+05 W/m^2
FIRE:Time    3587.500 s Latent heat output     0.396E+08 W
FIRE:Time    3587.500 s Max latent heat flux   0.241E+04 W/m^2
Timing for main: time 0001-01-01_00:59:47 on domain   1:    0.10029 elapsed seconds
FIRE:Time    3588.000 s Average wind           0.999E+00 m/s
FIRE:Time    3588.000 s Maximum wind           0.113E+01 m/s
FIRE:Time    3588.000 s Fire area              0.583E+06 m^2
FIRE:Time    3588.000 s Heat output            0.434E+09 W
FIRE:Time    3588.000 s Max heat flux          0.346E+05 W/m^2
FIRE:Time    3588.000 s Latent heat output     0.399E+08 W
FIRE:Time    3588.000 s Max latent heat flux   0.317E+04 W/m^2
Timing for main: time 0001-01-01_00:59:48 on domain   1:    0.09999 elapsed seconds
FIRE:Time    3588.500 s Average wind           0.999E+00 m/s
FIRE:Time    3588.500 s Maximum wind           0.113E+01 m/s
FIRE:Time    3588.500 s Fire area              0.583E+06 m^2
FIRE:Time    3588.500 s Heat output            0.437E+09 W
FIRE:Time    3588.500 s Max heat flux          0.348E+05 W/m^2
FIRE:Time    3588.500 s Latent heat output     0.401E+08 W
FIRE:Time    3588.500 s Max latent heat flux   0.319E+04 W/m^2
Timing for main: time 0001-01-01_00:59:48 on domain   1:    0.09973 elapsed seconds
FIRE:Time    3589.000 s Average wind           0.999E+00 m/s
FIRE:Time    3589.000 s Maximum wind           0.113E+01 m/s
FIRE:Time    3589.000 s Fire area              0.583E+06 m^2
FIRE:Time    3589.000 s Heat output            0.453E+09 W
FIRE:Time    3589.000 s Max heat flux          0.419E+05 W/m^2
FIRE:Time    3589.000 s Latent heat output     0.416E+08 W
FIRE:Time    3589.000 s Max latent heat flux   0.384E+04 W/m^2
Timing for main: time 0001-01-01_00:59:49 on domain   1:    0.09976 elapsed seconds
FIRE:Time    3589.500 s Average wind           0.999E+00 m/s
FIRE:Time    3589.500 s Maximum wind           0.113E+01 m/s
FIRE:Time    3589.500 s Fire area              0.583E+06 m^2
FIRE:Time    3589.500 s Heat output            0.456E+09 W
FIRE:Time    3589.500 s Max heat flux          0.821E+05 W/m^2
FIRE:Time    3589.500 s Latent heat output     0.418E+08 W
FIRE:Time    3589.500 s Max latent heat flux   0.753E+04 W/m^2
Timing for main: time 0001-01-01_00:59:49 on domain   1:    0.09980 elapsed seconds
FIRE:Time    3590.000 s Average wind           0.999E+00 m/s
FIRE:Time    3590.000 s Maximum wind           0.113E+01 m/s
FIRE:Time    3590.000 s Fire area              0.583E+06 m^2
FIRE:Time    3590.000 s Heat output            0.431E+09 W
FIRE:Time    3590.000 s Max heat flux          0.263E+05 W/m^2
FIRE:Time    3590.000 s Latent heat output     0.396E+08 W
FIRE:Time    3590.000 s Max latent heat flux   0.241E+04 W/m^2
Timing for main: time 0001-01-01_00:59:50 on domain   1:    0.09984 elapsed seconds
FIRE:Time    3590.500 s Average wind           0.999E+00 m/s
FIRE:Time    3590.500 s Maximum wind           0.113E+01 m/s
FIRE:Time    3590.500 s Fire area              0.583E+06 m^2
FIRE:Time    3590.500 s Heat output            0.463E+09 W
FIRE:Time    3590.500 s Max heat flux          0.518E+05 W/m^2
FIRE:Time    3590.500 s Latent heat output     0.425E+08 W
FIRE:Time    3590.500 s Max latent heat flux   0.476E+04 W/m^2
Timing for main: time 0001-01-01_00:59:50 on domain   1:    0.10068 elapsed seconds
FIRE:Time    3591.000 s Average wind           0.999E+00 m/s
FIRE:Time    3591.000 s Maximum wind           0.113E+01 m/s
FIRE:Time    3591.000 s Fire area              0.583E+06 m^2
FIRE:Time    3591.000 s Heat output            0.430E+09 W
FIRE:Time    3591.000 s Max heat flux          0.263E+05 W/m^2
FIRE:Time    3591.000 s Latent heat output     0.395E+08 W
FIRE:Time    3591.000 s Max latent heat flux   0.241E+04 W/m^2
Timing for main: time 0001-01-01_00:59:51 on domain   1:    0.09951 elapsed seconds
FIRE:Time    3591.500 s Average wind           0.999E+00 m/s
FIRE:Time    3591.500 s Maximum wind           0.113E+01 m/s
FIRE:Time    3591.500 s Fire area              0.583E+06 m^2
FIRE:Time    3591.500 s Heat output            0.437E+09 W
FIRE:Time    3591.500 s Max heat flux          0.488E+05 W/m^2
FIRE:Time    3591.500 s Latent heat output     0.401E+08 W
FIRE:Time    3591.500 s Max latent heat flux   0.448E+04 W/m^2
Timing for main: time 0001-01-01_00:59:51 on domain   1:    0.10051 elapsed seconds
FIRE:Time    3592.000 s Average wind           0.999E+00 m/s
FIRE:Time    3592.000 s Maximum wind           0.113E+01 m/s
FIRE:Time    3592.000 s Fire area              0.583E+06 m^2
FIRE:Time    3592.000 s Heat output            0.430E+09 W
FIRE:Time    3592.000 s Max heat flux          0.263E+05 W/m^2
FIRE:Time    3592.000 s Latent heat output     0.395E+08 W
FIRE:Time    3592.000 s Max latent heat flux   0.241E+04 W/m^2
Timing for main: time 0001-01-01_00:59:52 on domain   1:    0.09972 elapsed seconds
FIRE:Time    3592.500 s Average wind           0.999E+00 m/s
FIRE:Time    3592.500 s Maximum wind           0.113E+01 m/s
FIRE:Time    3592.500 s Fire area              0.583E+06 m^2
FIRE:Time    3592.500 s Heat output            0.437E+09 W
FIRE:Time    3592.500 s Max heat flux          0.487E+05 W/m^2
FIRE:Time    3592.500 s Latent heat output     0.401E+08 W
FIRE:Time    3592.500 s Max latent heat flux   0.447E+04 W/m^2
Timing for main: time 0001-01-01_00:59:52 on domain   1:    0.09977 elapsed seconds
FIRE:Time    3593.000 s Average wind           0.999E+00 m/s
FIRE:Time    3593.000 s Maximum wind           0.113E+01 m/s
FIRE:Time    3593.000 s Fire area              0.583E+06 m^2
FIRE:Time    3593.000 s Heat output            0.439E+09 W
FIRE:Time    3593.000 s Max heat flux          0.452E+05 W/m^2
FIRE:Time    3593.000 s Latent heat output     0.403E+08 W
FIRE:Time    3593.000 s Max latent heat flux   0.415E+04 W/m^2
Timing for main: time 0001-01-01_00:59:53 on domain   1:    0.09872 elapsed seconds
FIRE:Time    3593.500 s Average wind           0.999E+00 m/s
FIRE:Time    3593.500 s Maximum wind           0.113E+01 m/s
FIRE:Time    3593.500 s Fire area              0.583E+06 m^2
FIRE:Time    3593.500 s Heat output            0.431E+09 W
FIRE:Time    3593.500 s Max heat flux          0.263E+05 W/m^2
FIRE:Time    3593.500 s Latent heat output     0.396E+08 W
FIRE:Time    3593.500 s Max latent heat flux   0.241E+04 W/m^2
Timing for main: time 0001-01-01_00:59:53 on domain   1:    0.09871 elapsed seconds
FIRE:Time    3594.000 s Average wind           0.999E+00 m/s
FIRE:Time    3594.000 s Maximum wind           0.113E+01 m/s
FIRE:Time    3594.000 s Fire area              0.583E+06 m^2
FIRE:Time    3594.000 s Heat output            0.432E+09 W
FIRE:Time    3594.000 s Max heat flux          0.263E+05 W/m^2
FIRE:Time    3594.000 s Latent heat output     0.396E+08 W
FIRE:Time    3594.000 s Max latent heat flux   0.241E+04 W/m^2
Timing for main: time 0001-01-01_00:59:54 on domain   1:    0.09828 elapsed seconds
FIRE:Time    3594.500 s Average wind           0.999E+00 m/s
FIRE:Time    3594.500 s Maximum wind           0.113E+01 m/s
FIRE:Time    3594.500 s Fire area              0.584E+06 m^2
FIRE:Time    3594.500 s Heat output            0.440E+09 W
FIRE:Time    3594.500 s Max heat flux          0.479E+05 W/m^2
FIRE:Time    3594.500 s Latent heat output     0.404E+08 W
FIRE:Time    3594.500 s Max latent heat flux   0.440E+04 W/m^2
Timing for main: time 0001-01-01_00:59:54 on domain   1:    0.09830 elapsed seconds
FIRE:Time    3595.000 s Average wind           0.999E+00 m/s
FIRE:Time    3595.000 s Maximum wind           0.113E+01 m/s
FIRE:Time    3595.000 s Fire area              0.584E+06 m^2
FIRE:Time    3595.000 s Heat output            0.450E+09 W
FIRE:Time    3595.000 s Max heat flux          0.832E+05 W/m^2
FIRE:Time    3595.000 s Latent heat output     0.413E+08 W
FIRE:Time    3595.000 s Max latent heat flux   0.764E+04 W/m^2
Timing for main: time 0001-01-01_00:59:55 on domain   1:    0.09877 elapsed seconds
FIRE:Time    3595.500 s Average wind           0.999E+00 m/s
FIRE:Time    3595.500 s Maximum wind           0.113E+01 m/s
FIRE:Time    3595.500 s Fire area              0.584E+06 m^2
FIRE:Time    3595.500 s Heat output            0.443E+09 W
FIRE:Time    3595.500 s Max heat flux          0.458E+05 W/m^2
FIRE:Time    3595.500 s Latent heat output     0.407E+08 W
FIRE:Time    3595.500 s Max latent heat flux   0.420E+04 W/m^2
Timing for main: time 0001-01-01_00:59:55 on domain   1:    0.10104 elapsed seconds
FIRE:Time    3596.000 s Average wind           0.999E+00 m/s
FIRE:Time    3596.000 s Maximum wind           0.113E+01 m/s
FIRE:Time    3596.000 s Fire area              0.584E+06 m^2
FIRE:Time    3596.000 s Heat output            0.448E+09 W
FIRE:Time    3596.000 s Max heat flux          0.482E+05 W/m^2
FIRE:Time    3596.000 s Latent heat output     0.411E+08 W
FIRE:Time    3596.000 s Max latent heat flux   0.443E+04 W/m^2
Timing for main: time 0001-01-01_00:59:56 on domain   1:    0.09811 elapsed seconds
FIRE:Time    3596.500 s Average wind           0.999E+00 m/s
FIRE:Time    3596.500 s Maximum wind           0.113E+01 m/s
FIRE:Time    3596.500 s Fire area              0.584E+06 m^2
FIRE:Time    3596.500 s Heat output            0.433E+09 W
FIRE:Time    3596.500 s Max heat flux          0.262E+05 W/m^2
FIRE:Time    3596.500 s Latent heat output     0.397E+08 W
FIRE:Time    3596.500 s Max latent heat flux   0.240E+04 W/m^2
Timing for main: time 0001-01-01_00:59:56 on domain   1:    0.10044 elapsed seconds
FIRE:Time    3597.000 s Average wind           0.999E+00 m/s
FIRE:Time    3597.000 s Maximum wind           0.113E+01 m/s
FIRE:Time    3597.000 s Fire area              0.584E+06 m^2
FIRE:Time    3597.000 s Heat output            0.449E+09 W
FIRE:Time    3597.000 s Max heat flux          0.601E+05 W/m^2
FIRE:Time    3597.000 s Latent heat output     0.412E+08 W
FIRE:Time    3597.000 s Max latent heat flux   0.552E+04 W/m^2
Timing for main: time 0001-01-01_00:59:57 on domain   1:    0.09817 elapsed seconds
FIRE:Time    3597.500 s Average wind           0.999E+00 m/s
FIRE:Time    3597.500 s Maximum wind           0.113E+01 m/s
FIRE:Time    3597.500 s Fire area              0.584E+06 m^2
FIRE:Time    3597.500 s Heat output            0.433E+09 W
FIRE:Time    3597.500 s Max heat flux          0.262E+05 W/m^2
FIRE:Time    3597.500 s Latent heat output     0.397E+08 W
FIRE:Time    3597.500 s Max latent heat flux   0.241E+04 W/m^2
Timing for main: time 0001-01-01_00:59:57 on domain   1:    0.09778 elapsed seconds
FIRE:Time    3598.000 s Average wind           0.999E+00 m/s
FIRE:Time    3598.000 s Maximum wind           0.113E+01 m/s
FIRE:Time    3598.000 s Fire area              0.584E+06 m^2
FIRE:Time    3598.000 s Heat output            0.453E+09 W
FIRE:Time    3598.000 s Max heat flux          0.792E+05 W/m^2
FIRE:Time    3598.000 s Latent heat output     0.416E+08 W
FIRE:Time    3598.000 s Max latent heat flux   0.727E+04 W/m^2
Timing for main: time 0001-01-01_00:59:58 on domain   1:    0.09825 elapsed seconds
FIRE:Time    3598.500 s Average wind           0.999E+00 m/s
FIRE:Time    3598.500 s Maximum wind           0.113E+01 m/s
FIRE:Time    3598.500 s Fire area              0.584E+06 m^2
FIRE:Time    3598.500 s Heat output            0.459E+09 W
FIRE:Time    3598.500 s Max heat flux          0.490E+05 W/m^2
FIRE:Time    3598.500 s Latent heat output     0.421E+08 W
FIRE:Time    3598.500 s Max latent heat flux   0.450E+04 W/m^2
Timing for main: time 0001-01-01_00:59:58 on domain   1:    0.09770 elapsed seconds
FIRE:Time    3599.000 s Average wind           0.999E+00 m/s
FIRE:Time    3599.000 s Maximum wind           0.113E+01 m/s
FIRE:Time    3599.000 s Fire area              0.584E+06 m^2
FIRE:Time    3599.000 s Heat output            0.430E+09 W
FIRE:Time    3599.000 s Max heat flux          0.263E+05 W/m^2
FIRE:Time    3599.000 s Latent heat output     0.395E+08 W
FIRE:Time    3599.000 s Max latent heat flux   0.241E+04 W/m^2
Timing for main: time 0001-01-01_00:59:59 on domain   1:    0.09815 elapsed seconds
FIRE:Time    3599.500 s Average wind           0.999E+00 m/s
FIRE:Time    3599.500 s Maximum wind           0.113E+01 m/s
FIRE:Time    3599.500 s Fire area              0.584E+06 m^2
FIRE:Time    3599.500 s Heat output            0.437E+09 W
FIRE:Time    3599.500 s Max heat flux          0.478E+05 W/m^2
FIRE:Time    3599.500 s Latent heat output     0.401E+08 W
FIRE:Time    3599.500 s Max latent heat flux   0.438E+04 W/m^2
Timing for main: time 0001-01-01_00:59:59 on domain   1:    0.09724 elapsed seconds
FIRE:Time    3600.000 s Average wind           0.999E+00 m/s
FIRE:Time    3600.000 s Maximum wind           0.113E+01 m/s
FIRE:Time    3600.000 s Fire area              0.584E+06 m^2
FIRE:Time    3600.000 s Heat output            0.440E+09 W
FIRE:Time    3600.000 s Max heat flux          0.681E+05 W/m^2
FIRE:Time    3600.000 s Latent heat output     0.404E+08 W
FIRE:Time    3600.000 s Max latent heat flux   0.625E+04 W/m^2
Timing for main: time 0001-01-01_01:00:00 on domain   1:    0.09840 elapsed seconds
Timing for Writing wrfout_d01_0001-01-01_01:00:00 for domain        1:    0.79846 elapsed seconds
d01 0001-01-01_01:00:00 wrf: SUCCESS COMPLETE WRF
